/*---------------------------------------------------------------------------*\
| =========                 |                                                 |
| \\      /  F ield         | OpenFOAM: The Open Source CFD Toolbox           |
|  \\    /   O peration     | Version:  v1912                                 |
|   \\  /    A nd           | Website:  www.openfoam.com                      |
|    \\/     M anipulation  |                                                 |
\*---------------------------------------------------------------------------*/
Build  : _f3950763fe-20191219 OPENFOAM=1912
Arch   : "LSB;label=32;scalar=64"
Exec   : simpleFoam
Date   : Jun 06 2020
Time   : 11:47:49
Host   : DESKTOP-7S8DQ3L
PID    : 4890
I/O    : uncollated
Case   : /home/logankp/OpenFOAM/logankp-v1912/run/CFD/Midterm_Case/Simple_Mesh/SteadyState/Laminar
nProcs : 1
trapFpe: Floating point exception trapping enabled (FOAM_SIGFPE).
fileModificationChecking : Monitoring run-time modified files using timeStampMaster (fileModificationSkew 10)
allowSystemOperations : Allowing user-supplied system call operations

// * * * * * * * * * * * * * * * * * * * * * * * * * * * * * * * * * * * * * //
Create time

Create mesh for time = 0


SIMPLE: convergence criteria
    field p	 tolerance 1e-07
    field U	 tolerance 1e-08
    field "”(kjepsilonjomegajfjv2)”"	 tolerance 1e-08

Reading field p

Reading field U

Reading/calculating face flux field phi

Selecting incompressible transport model Newtonian
Selecting turbulence model type laminar
Selecting laminar stress model Stokes
No MRF models present

No finite volume options present

Starting time loop

Time = 1

smoothSolver:  Solving for Ux, Initial residual = 1, Final residual = 0.0025912, No Iterations 1
smoothSolver:  Solving for Uy, Initial residual = 1, Final residual = 0.00235174, No Iterations 1
GAMG:  Solving for p, Initial residual = 1, Final residual = 0.0894841, No Iterations 9
time step continuity errors : sum local = 0.00375176, global = 0.000833567, cumulative = 0.000833567
ExecutionTime = 0.18 s  ClockTime = 0 s

Time = 2

smoothSolver:  Solving for Ux, Initial residual = 0.356755, Final residual = 0.00861084, No Iterations 2
smoothSolver:  Solving for Uy, Initial residual = 0.452265, Final residual = 0.0296641, No Iterations 2
GAMG:  Solving for p, Initial residual = 0.513219, Final residual = 0.031219, No Iterations 4
time step continuity errors : sum local = 0.00700575, global = -0.000952227, cumulative = -0.00011866
ExecutionTime = 0.2 s  ClockTime = 0 s

Time = 3

smoothSolver:  Solving for Ux, Initial residual = 0.147299, Final residual = 0.00386917, No Iterations 2
smoothSolver:  Solving for Uy, Initial residual = 0.341208, Final residual = 0.0066654, No Iterations 2
GAMG:  Solving for p, Initial residual = 0.237221, Final residual = 0.019448, No Iterations 3
time step continuity errors : sum local = 0.0079738, global = 0.00063041, cumulative = 0.00051175
ExecutionTime = 0.21 s  ClockTime = 0 s

Time = 4

smoothSolver:  Solving for Ux, Initial residual = 0.101876, Final residual = 0.00391813, No Iterations 2
smoothSolver:  Solving for Uy, Initial residual = 0.162654, Final residual = 0.00522625, No Iterations 2
GAMG:  Solving for p, Initial residual = 0.107392, Final residual = 0.00770133, No Iterations 3
time step continuity errors : sum local = 0.00409699, global = 0.000332318, cumulative = 0.000844068
ExecutionTime = 0.22 s  ClockTime = 0 s

Time = 5

smoothSolver:  Solving for Ux, Initial residual = 0.0779325, Final residual = 0.00447325, No Iterations 2
smoothSolver:  Solving for Uy, Initial residual = 0.116088, Final residual = 0.00447318, No Iterations 2
GAMG:  Solving for p, Initial residual = 0.0644602, Final residual = 0.00625772, No Iterations 2
time step continuity errors : sum local = 0.00379291, global = -0.000320654, cumulative = 0.000523414
ExecutionTime = 0.24 s  ClockTime = 0 s

Time = 6

smoothSolver:  Solving for Ux, Initial residual = 0.0761456, Final residual = 0.00529115, No Iterations 2
smoothSolver:  Solving for Uy, Initial residual = 0.125756, Final residual = 0.00490006, No Iterations 2
GAMG:  Solving for p, Initial residual = 0.0534705, Final residual = 0.002804, No Iterations 3
time step continuity errors : sum local = 0.00183673, global = 9.24751e-05, cumulative = 0.000615889
ExecutionTime = 0.26 s  ClockTime = 0 s

Time = 7

smoothSolver:  Solving for Ux, Initial residual = 0.0787564, Final residual = 0.00621402, No Iterations 2
smoothSolver:  Solving for Uy, Initial residual = 0.120246, Final residual = 0.00453331, No Iterations 2
GAMG:  Solving for p, Initial residual = 0.0514139, Final residual = 0.00310168, No Iterations 3
time step continuity errors : sum local = 0.00209281, global = 0.00029445, cumulative = 0.000910339
ExecutionTime = 0.27 s  ClockTime = 0 s

Time = 8

smoothSolver:  Solving for Ux, Initial residual = 0.0846386, Final residual = 0.00666202, No Iterations 2
smoothSolver:  Solving for Uy, Initial residual = 0.126226, Final residual = 0.0048264, No Iterations 2
GAMG:  Solving for p, Initial residual = 0.0576777, Final residual = 0.00390414, No Iterations 3
time step continuity errors : sum local = 0.0027439, global = 0.000392238, cumulative = 0.00130258
ExecutionTime = 0.29 s  ClockTime = 0 s

Time = 9

smoothSolver:  Solving for Ux, Initial residual = 0.091431, Final residual = 0.0076378, No Iterations 2
smoothSolver:  Solving for Uy, Initial residual = 0.125738, Final residual = 0.00517838, No Iterations 2
GAMG:  Solving for p, Initial residual = 0.0638299, Final residual = 0.0045771, No Iterations 3
time step continuity errors : sum local = 0.00342741, global = 0.000397646, cumulative = 0.00170022
ExecutionTime = 0.29 s  ClockTime = 0 s

Time = 10

smoothSolver:  Solving for Ux, Initial residual = 0.0952932, Final residual = 0.00820108, No Iterations 2
smoothSolver:  Solving for Uy, Initial residual = 0.133609, Final residual = 0.00634034, No Iterations 2
GAMG:  Solving for p, Initial residual = 0.0731334, Final residual = 0.00539016, No Iterations 3
time step continuity errors : sum local = 0.004057, global = -0.00025237, cumulative = 0.00144785
ExecutionTime = 0.3 s  ClockTime = 0 s

Time = 11

smoothSolver:  Solving for Ux, Initial residual = 0.10239, Final residual = 0.00892495, No Iterations 2
smoothSolver:  Solving for Uy, Initial residual = 0.150384, Final residual = 0.00803185, No Iterations 2
GAMG:  Solving for p, Initial residual = 0.0818383, Final residual = 0.00453858, No Iterations 3
time step continuity errors : sum local = 0.00346421, global = -5.71468e-05, cumulative = 0.00139071
ExecutionTime = 0.31 s  ClockTime = 0 s

Time = 12

smoothSolver:  Solving for Ux, Initial residual = 0.108895, Final residual = 0.00958319, No Iterations 2
smoothSolver:  Solving for Uy, Initial residual = 0.16377, Final residual = 0.0100652, No Iterations 2
GAMG:  Solving for p, Initial residual = 0.09291, Final residual = 0.00899739, No Iterations 2
time step continuity errors : sum local = 0.00697449, global = 0.000212918, cumulative = 0.00160362
ExecutionTime = 0.33 s  ClockTime = 0 s

Time = 13

smoothSolver:  Solving for Ux, Initial residual = 0.11476, Final residual = 0.0108643, No Iterations 2
smoothSolver:  Solving for Uy, Initial residual = 0.169539, Final residual = 0.0117129, No Iterations 2
GAMG:  Solving for p, Initial residual = 0.100965, Final residual = 0.00993975, No Iterations 2
time step continuity errors : sum local = 0.00802983, global = 0.000719813, cumulative = 0.00232344
ExecutionTime = 0.33 s  ClockTime = 0 s

Time = 14

smoothSolver:  Solving for Ux, Initial residual = 0.119977, Final residual = 0.0118297, No Iterations 2
smoothSolver:  Solving for Uy, Initial residual = 0.18238, Final residual = 0.0138494, No Iterations 2
GAMG:  Solving for p, Initial residual = 0.101312, Final residual = 0.00468933, No Iterations 3
time step continuity errors : sum local = 0.00408584, global = 0.000742789, cumulative = 0.00306623
ExecutionTime = 0.35 s  ClockTime = 0 s

Time = 15

smoothSolver:  Solving for Ux, Initial residual = 0.125359, Final residual = 0.00531449, No Iterations 3
smoothSolver:  Solving for Uy, Initial residual = 0.189616, Final residual = 0.0161711, No Iterations 2
GAMG:  Solving for p, Initial residual = 0.108833, Final residual = 0.00919159, No Iterations 2
time step continuity errors : sum local = 0.00840524, global = 5.50516e-05, cumulative = 0.00312128
ExecutionTime = 0.37 s  ClockTime = 0 s

Time = 16

smoothSolver:  Solving for Ux, Initial residual = 0.124496, Final residual = 0.00558949, No Iterations 3
smoothSolver:  Solving for Uy, Initial residual = 0.197526, Final residual = 0.0179868, No Iterations 2
GAMG:  Solving for p, Initial residual = 0.110755, Final residual = 0.0101873, No Iterations 2
time step continuity errors : sum local = 0.00933401, global = -0.000167198, cumulative = 0.00295408
ExecutionTime = 0.37 s  ClockTime = 0 s

Time = 17

smoothSolver:  Solving for Ux, Initial residual = 0.127401, Final residual = 0.005628, No Iterations 3
smoothSolver:  Solving for Uy, Initial residual = 0.205249, Final residual = 0.0191137, No Iterations 2
GAMG:  Solving for p, Initial residual = 0.11925, Final residual = 0.0103453, No Iterations 2
time step continuity errors : sum local = 0.00942437, global = -5.73152e-05, cumulative = 0.00289676
ExecutionTime = 0.38 s  ClockTime = 0 s

Time = 18

smoothSolver:  Solving for Ux, Initial residual = 0.122852, Final residual = 0.00577865, No Iterations 3
smoothSolver:  Solving for Uy, Initial residual = 0.205297, Final residual = 0.0194972, No Iterations 2
GAMG:  Solving for p, Initial residual = 0.118168, Final residual = 0.0100265, No Iterations 2
time step continuity errors : sum local = 0.00996583, global = -5.26884e-05, cumulative = 0.00284407
ExecutionTime = 0.38 s  ClockTime = 0 s

Time = 19

smoothSolver:  Solving for Ux, Initial residual = 0.126584, Final residual = 0.0056961, No Iterations 3
smoothSolver:  Solving for Uy, Initial residual = 0.211061, Final residual = 0.0202913, No Iterations 2
GAMG:  Solving for p, Initial residual = 0.128863, Final residual = 0.0103928, No Iterations 2
time step continuity errors : sum local = 0.0101663, global = 0.000349051, cumulative = 0.00319313
ExecutionTime = 0.39 s  ClockTime = 0 s

Time = 20

smoothSolver:  Solving for Ux, Initial residual = 0.127693, Final residual = 0.00575438, No Iterations 3
smoothSolver:  Solving for Uy, Initial residual = 0.209711, Final residual = 0.0209148, No Iterations 2
GAMG:  Solving for p, Initial residual = 0.135149, Final residual = 0.0113296, No Iterations 2
time step continuity errors : sum local = 0.0113311, global = 0.000510113, cumulative = 0.00370324
ExecutionTime = 0.44 s  ClockTime = 0 s

Time = 21

smoothSolver:  Solving for Ux, Initial residual = 0.123991, Final residual = 0.00590639, No Iterations 3
smoothSolver:  Solving for Uy, Initial residual = 0.207848, Final residual = 0.0102002, No Iterations 3
GAMG:  Solving for p, Initial residual = 0.136327, Final residual = 0.0121482, No Iterations 2
time step continuity errors : sum local = 0.0130116, global = 0.000156267, cumulative = 0.00385951
ExecutionTime = 0.44 s  ClockTime = 0 s

Time = 22

smoothSolver:  Solving for Ux, Initial residual = 0.12879, Final residual = 0.00598136, No Iterations 3
smoothSolver:  Solving for Uy, Initial residual = 0.203231, Final residual = 0.0202464, No Iterations 2
GAMG:  Solving for p, Initial residual = 0.142926, Final residual = 0.0119745, No Iterations 2
time step continuity errors : sum local = 0.0132198, global = 0.000522194, cumulative = 0.0043817
ExecutionTime = 0.46 s  ClockTime = 1 s

Time = 23

smoothSolver:  Solving for Ux, Initial residual = 0.130796, Final residual = 0.0059088, No Iterations 3
smoothSolver:  Solving for Uy, Initial residual = 0.202889, Final residual = 0.0099532, No Iterations 3
GAMG:  Solving for p, Initial residual = 0.144415, Final residual = 0.0126533, No Iterations 2
time step continuity errors : sum local = 0.0145628, global = 0.000596924, cumulative = 0.00497862
ExecutionTime = 0.47 s  ClockTime = 1 s

Time = 24

smoothSolver:  Solving for Ux, Initial residual = 0.137754, Final residual = 0.00611262, No Iterations 3
smoothSolver:  Solving for Uy, Initial residual = 0.201255, Final residual = 0.0093125, No Iterations 3
GAMG:  Solving for p, Initial residual = 0.157664, Final residual = 0.0134388, No Iterations 2
time step continuity errors : sum local = 0.0155628, global = 0.00064984, cumulative = 0.00562846
ExecutionTime = 0.47 s  ClockTime = 1 s

Time = 25

smoothSolver:  Solving for Ux, Initial residual = 0.137576, Final residual = 0.00622688, No Iterations 3
smoothSolver:  Solving for Uy, Initial residual = 0.199235, Final residual = 0.0198806, No Iterations 2
GAMG:  Solving for p, Initial residual = 0.150957, Final residual = 0.0122386, No Iterations 2
time step continuity errors : sum local = 0.0151076, global = 0.000656148, cumulative = 0.00628461
ExecutionTime = 0.49 s  ClockTime = 1 s

Time = 26

smoothSolver:  Solving for Ux, Initial residual = 0.137865, Final residual = 0.00636117, No Iterations 3
smoothSolver:  Solving for Uy, Initial residual = 0.196042, Final residual = 0.00970939, No Iterations 3
GAMG:  Solving for p, Initial residual = 0.148067, Final residual = 0.0127098, No Iterations 2
time step continuity errors : sum local = 0.0161478, global = 0.00061716, cumulative = 0.00690177
ExecutionTime = 0.49 s  ClockTime = 1 s

Time = 27

smoothSolver:  Solving for Ux, Initial residual = 0.129753, Final residual = 0.00661335, No Iterations 3
smoothSolver:  Solving for Uy, Initial residual = 0.180699, Final residual = 0.00918556, No Iterations 3
GAMG:  Solving for p, Initial residual = 0.134503, Final residual = 0.0116472, No Iterations 2
time step continuity errors : sum local = 0.0153604, global = 0.000638533, cumulative = 0.0075403
ExecutionTime = 0.51 s  ClockTime = 1 s

Time = 28

smoothSolver:  Solving for Ux, Initial residual = 0.120412, Final residual = 0.00651282, No Iterations 3
smoothSolver:  Solving for Uy, Initial residual = 0.164699, Final residual = 0.00862251, No Iterations 3
GAMG:  Solving for p, Initial residual = 0.128223, Final residual = 0.0108934, No Iterations 2
time step continuity errors : sum local = 0.0144221, global = 0.000380386, cumulative = 0.00792069
ExecutionTime = 0.53 s  ClockTime = 1 s

Time = 29

smoothSolver:  Solving for Ux, Initial residual = 0.113144, Final residual = 0.00623245, No Iterations 3
smoothSolver:  Solving for Uy, Initial residual = 0.144929, Final residual = 0.00771585, No Iterations 3
GAMG:  Solving for p, Initial residual = 0.117824, Final residual = 0.0100801, No Iterations 2
time step continuity errors : sum local = 0.0132, global = 2.05849e-05, cumulative = 0.00794128
ExecutionTime = 0.53 s  ClockTime = 1 s

Time = 30

smoothSolver:  Solving for Ux, Initial residual = 0.107108, Final residual = 0.00617951, No Iterations 3
smoothSolver:  Solving for Uy, Initial residual = 0.132168, Final residual = 0.00692268, No Iterations 3
GAMG:  Solving for p, Initial residual = 0.106561, Final residual = 0.00852179, No Iterations 2
time step continuity errors : sum local = 0.011148, global = -0.000180299, cumulative = 0.00776098
ExecutionTime = 0.54 s  ClockTime = 1 s

Time = 31

smoothSolver:  Solving for Ux, Initial residual = 0.103102, Final residual = 0.00637403, No Iterations 3
smoothSolver:  Solving for Uy, Initial residual = 0.123987, Final residual = 0.0062082, No Iterations 3
GAMG:  Solving for p, Initial residual = 0.120179, Final residual = 0.00911526, No Iterations 2
time step continuity errors : sum local = 0.0118829, global = -0.000344077, cumulative = 0.0074169
ExecutionTime = 0.55 s  ClockTime = 1 s

Time = 32

smoothSolver:  Solving for Ux, Initial residual = 0.103437, Final residual = 0.00622391, No Iterations 3
smoothSolver:  Solving for Uy, Initial residual = 0.128167, Final residual = 0.00608705, No Iterations 3
GAMG:  Solving for p, Initial residual = 0.12848, Final residual = 0.00927491, No Iterations 2
time step continuity errors : sum local = 0.0121172, global = -0.000418853, cumulative = 0.00699805
ExecutionTime = 0.55 s  ClockTime = 1 s

Time = 33

smoothSolver:  Solving for Ux, Initial residual = 0.101896, Final residual = 0.00587298, No Iterations 3
smoothSolver:  Solving for Uy, Initial residual = 0.136213, Final residual = 0.0129304, No Iterations 2
GAMG:  Solving for p, Initial residual = 0.126928, Final residual = 0.00860995, No Iterations 2
time step continuity errors : sum local = 0.0114437, global = -0.00046589, cumulative = 0.00653216
ExecutionTime = 0.57 s  ClockTime = 1 s

Time = 34

smoothSolver:  Solving for Ux, Initial residual = 0.100277, Final residual = 0.005374, No Iterations 3
smoothSolver:  Solving for Uy, Initial residual = 0.142718, Final residual = 0.0125892, No Iterations 2
GAMG:  Solving for p, Initial residual = 0.123314, Final residual = 0.00847398, No Iterations 2
time step continuity errors : sum local = 0.0114653, global = -0.000480598, cumulative = 0.00605156
ExecutionTime = 0.59 s  ClockTime = 1 s

Time = 35

smoothSolver:  Solving for Ux, Initial residual = 0.0993846, Final residual = 0.00984338, No Iterations 2
smoothSolver:  Solving for Uy, Initial residual = 0.140428, Final residual = 0.0124873, No Iterations 2
GAMG:  Solving for p, Initial residual = 0.119343, Final residual = 0.00774646, No Iterations 2
time step continuity errors : sum local = 0.0107647, global = -0.000411228, cumulative = 0.00564033
ExecutionTime = 0.59 s  ClockTime = 1 s

Time = 36

smoothSolver:  Solving for Ux, Initial residual = 0.0980169, Final residual = 0.00941558, No Iterations 2
smoothSolver:  Solving for Uy, Initial residual = 0.135936, Final residual = 0.0124947, No Iterations 2
GAMG:  Solving for p, Initial residual = 0.116949, Final residual = 0.00672357, No Iterations 2
time step continuity errors : sum local = 0.00931247, global = -0.000265035, cumulative = 0.0053753
ExecutionTime = 0.6 s  ClockTime = 1 s

Time = 37

smoothSolver:  Solving for Ux, Initial residual = 0.0931247, Final residual = 0.00884171, No Iterations 2
smoothSolver:  Solving for Uy, Initial residual = 0.137612, Final residual = 0.0133965, No Iterations 2
GAMG:  Solving for p, Initial residual = 0.112213, Final residual = 0.00632943, No Iterations 2
time step continuity errors : sum local = 0.0086113, global = -2.94926e-05, cumulative = 0.0053458
ExecutionTime = 0.61 s  ClockTime = 1 s

Time = 38

smoothSolver:  Solving for Ux, Initial residual = 0.0907943, Final residual = 0.00883719, No Iterations 2
smoothSolver:  Solving for Uy, Initial residual = 0.14088, Final residual = 0.0138694, No Iterations 2
GAMG:  Solving for p, Initial residual = 0.109571, Final residual = 0.00638758, No Iterations 2
time step continuity errors : sum local = 0.00865489, global = 8.42996e-05, cumulative = 0.0054301
ExecutionTime = 0.61 s  ClockTime = 1 s

Time = 39

smoothSolver:  Solving for Ux, Initial residual = 0.088115, Final residual = 0.00417106, No Iterations 3
smoothSolver:  Solving for Uy, Initial residual = 0.141142, Final residual = 0.0139342, No Iterations 2
GAMG:  Solving for p, Initial residual = 0.107411, Final residual = 0.00676967, No Iterations 2
time step continuity errors : sum local = 0.00929763, global = 0.000272979, cumulative = 0.00570308
ExecutionTime = 0.63 s  ClockTime = 1 s

Time = 40

smoothSolver:  Solving for Ux, Initial residual = 0.0869254, Final residual = 0.00423271, No Iterations 3
smoothSolver:  Solving for Uy, Initial residual = 0.138169, Final residual = 0.00657319, No Iterations 3
GAMG:  Solving for p, Initial residual = 0.106397, Final residual = 0.00721723, No Iterations 2
time step continuity errors : sum local = 0.0101124, global = 0.000382502, cumulative = 0.00608558
ExecutionTime = 0.67 s  ClockTime = 1 s

Time = 41

smoothSolver:  Solving for Ux, Initial residual = 0.0861724, Final residual = 0.00406659, No Iterations 3
smoothSolver:  Solving for Uy, Initial residual = 0.132297, Final residual = 0.00623043, No Iterations 3
GAMG:  Solving for p, Initial residual = 0.111273, Final residual = 0.00780452, No Iterations 2
time step continuity errors : sum local = 0.0110185, global = 0.000449928, cumulative = 0.00653551
ExecutionTime = 0.69 s  ClockTime = 1 s

Time = 42

smoothSolver:  Solving for Ux, Initial residual = 0.087573, Final residual = 0.00858222, No Iterations 2
smoothSolver:  Solving for Uy, Initial residual = 0.129844, Final residual = 0.00598224, No Iterations 3
GAMG:  Solving for p, Initial residual = 0.111614, Final residual = 0.00770617, No Iterations 2
time step continuity errors : sum local = 0.0112507, global = 0.000437089, cumulative = 0.0069726
ExecutionTime = 0.69 s  ClockTime = 1 s

Time = 43

smoothSolver:  Solving for Ux, Initial residual = 0.0891891, Final residual = 0.00844465, No Iterations 2
smoothSolver:  Solving for Uy, Initial residual = 0.128843, Final residual = 0.0128198, No Iterations 2
GAMG:  Solving for p, Initial residual = 0.117902, Final residual = 0.00803685, No Iterations 2
time step continuity errors : sum local = 0.0115363, global = 0.000454997, cumulative = 0.0074276
ExecutionTime = 0.71 s  ClockTime = 1 s

Time = 44

smoothSolver:  Solving for Ux, Initial residual = 0.0912978, Final residual = 0.00815115, No Iterations 2
smoothSolver:  Solving for Uy, Initial residual = 0.132998, Final residual = 0.0130972, No Iterations 2
GAMG:  Solving for p, Initial residual = 0.124302, Final residual = 0.00896267, No Iterations 2
time step continuity errors : sum local = 0.0124786, global = 0.000578702, cumulative = 0.0080063
ExecutionTime = 0.71 s  ClockTime = 1 s

Time = 45

smoothSolver:  Solving for Ux, Initial residual = 0.0930374, Final residual = 0.00846478, No Iterations 2
smoothSolver:  Solving for Uy, Initial residual = 0.137052, Final residual = 0.00633666, No Iterations 3
GAMG:  Solving for p, Initial residual = 0.12814, Final residual = 0.00951589, No Iterations 2
time step continuity errors : sum local = 0.0128031, global = 0.000716929, cumulative = 0.00872323
ExecutionTime = 0.72 s  ClockTime = 1 s

Time = 46

smoothSolver:  Solving for Ux, Initial residual = 0.0957462, Final residual = 0.00869552, No Iterations 2
smoothSolver:  Solving for Uy, Initial residual = 0.142067, Final residual = 0.00637293, No Iterations 3
GAMG:  Solving for p, Initial residual = 0.130682, Final residual = 0.00919984, No Iterations 2
time step continuity errors : sum local = 0.0126623, global = 0.000148993, cumulative = 0.00887222
ExecutionTime = 0.72 s  ClockTime = 1 s

Time = 47

smoothSolver:  Solving for Ux, Initial residual = 0.0967485, Final residual = 0.00842068, No Iterations 2
smoothSolver:  Solving for Uy, Initial residual = 0.148765, Final residual = 0.0139385, No Iterations 2
GAMG:  Solving for p, Initial residual = 0.133879, Final residual = 0.0086403, No Iterations 2
time step continuity errors : sum local = 0.0118636, global = 0.000527999, cumulative = 0.00940022
ExecutionTime = 0.73 s  ClockTime = 1 s

Time = 48

smoothSolver:  Solving for Ux, Initial residual = 0.093283, Final residual = 0.00788345, No Iterations 2
smoothSolver:  Solving for Uy, Initial residual = 0.154032, Final residual = 0.0138017, No Iterations 2
GAMG:  Solving for p, Initial residual = 0.122598, Final residual = 0.00689082, No Iterations 2
time step continuity errors : sum local = 0.00924785, global = 0.000478059, cumulative = 0.00987828
ExecutionTime = 0.73 s  ClockTime = 1 s

Time = 49

smoothSolver:  Solving for Ux, Initial residual = 0.0900283, Final residual = 0.00764436, No Iterations 2
smoothSolver:  Solving for Uy, Initial residual = 0.157511, Final residual = 0.0131718, No Iterations 2
GAMG:  Solving for p, Initial residual = 0.118289, Final residual = 0.00646795, No Iterations 2
time step continuity errors : sum local = 0.00852586, global = 0.00047614, cumulative = 0.0103544
ExecutionTime = 0.75 s  ClockTime = 1 s

Time = 50

smoothSolver:  Solving for Ux, Initial residual = 0.0843862, Final residual = 0.00714911, No Iterations 2
smoothSolver:  Solving for Uy, Initial residual = 0.151325, Final residual = 0.012839, No Iterations 2
GAMG:  Solving for p, Initial residual = 0.114641, Final residual = 0.00595748, No Iterations 2
time step continuity errors : sum local = 0.00795992, global = 0.000451551, cumulative = 0.010806
ExecutionTime = 0.75 s  ClockTime = 1 s

Time = 51

smoothSolver:  Solving for Ux, Initial residual = 0.0807374, Final residual = 0.00645754, No Iterations 2
smoothSolver:  Solving for Uy, Initial residual = 0.142949, Final residual = 0.0125149, No Iterations 2
GAMG:  Solving for p, Initial residual = 0.112845, Final residual = 0.00540297, No Iterations 2
time step continuity errors : sum local = 0.00754982, global = 0.000148875, cumulative = 0.0109548
ExecutionTime = 0.77 s  ClockTime = 1 s

Time = 52

smoothSolver:  Solving for Ux, Initial residual = 0.0781082, Final residual = 0.00617606, No Iterations 2
smoothSolver:  Solving for Uy, Initial residual = 0.136659, Final residual = 0.0123718, No Iterations 2
GAMG:  Solving for p, Initial residual = 0.111714, Final residual = 0.00567048, No Iterations 2
time step continuity errors : sum local = 0.00787479, global = 0.000280269, cumulative = 0.0112351
ExecutionTime = 0.77 s  ClockTime = 1 s

Time = 53

smoothSolver:  Solving for Ux, Initial residual = 0.0782466, Final residual = 0.00645395, No Iterations 2
smoothSolver:  Solving for Uy, Initial residual = 0.136553, Final residual = 0.0124531, No Iterations 2
GAMG:  Solving for p, Initial residual = 0.115865, Final residual = 0.00715262, No Iterations 2
time step continuity errors : sum local = 0.00964874, global = 0.000312822, cumulative = 0.0115479
ExecutionTime = 0.79 s  ClockTime = 1 s

Time = 54

smoothSolver:  Solving for Ux, Initial residual = 0.0783692, Final residual = 0.0065238, No Iterations 2
smoothSolver:  Solving for Uy, Initial residual = 0.139725, Final residual = 0.0127212, No Iterations 2
GAMG:  Solving for p, Initial residual = 0.1205, Final residual = 0.00784526, No Iterations 2
time step continuity errors : sum local = 0.0105854, global = 0.000375092, cumulative = 0.011923
ExecutionTime = 0.79 s  ClockTime = 1 s

Time = 55

smoothSolver:  Solving for Ux, Initial residual = 0.0762999, Final residual = 0.00647182, No Iterations 2
smoothSolver:  Solving for Uy, Initial residual = 0.142127, Final residual = 0.0129751, No Iterations 2
GAMG:  Solving for p, Initial residual = 0.118354, Final residual = 0.00774037, No Iterations 2
time step continuity errors : sum local = 0.010204, global = 0.000482546, cumulative = 0.0124056
ExecutionTime = 0.81 s  ClockTime = 1 s

Time = 56

smoothSolver:  Solving for Ux, Initial residual = 0.0741243, Final residual = 0.0062834, No Iterations 2
smoothSolver:  Solving for Uy, Initial residual = 0.144536, Final residual = 0.0129636, No Iterations 2
GAMG:  Solving for p, Initial residual = 0.111637, Final residual = 0.00832436, No Iterations 2
time step continuity errors : sum local = 0.0105796, global = -0.000276198, cumulative = 0.0121294
ExecutionTime = 0.81 s  ClockTime = 1 s

Time = 57

smoothSolver:  Solving for Ux, Initial residual = 0.0713565, Final residual = 0.00635041, No Iterations 2
smoothSolver:  Solving for Uy, Initial residual = 0.139583, Final residual = 0.0127363, No Iterations 2
GAMG:  Solving for p, Initial residual = 0.107318, Final residual = 0.00715512, No Iterations 2
time step continuity errors : sum local = 0.00888129, global = 0.000228594, cumulative = 0.012358
ExecutionTime = 0.82 s  ClockTime = 1 s

Time = 58

smoothSolver:  Solving for Ux, Initial residual = 0.068266, Final residual = 0.00609723, No Iterations 2
smoothSolver:  Solving for Uy, Initial residual = 0.131218, Final residual = 0.0127559, No Iterations 2
GAMG:  Solving for p, Initial residual = 0.104633, Final residual = 0.0070032, No Iterations 2
time step continuity errors : sum local = 0.0084391, global = 0.000245286, cumulative = 0.0126033
ExecutionTime = 0.82 s  ClockTime = 1 s

Time = 59

smoothSolver:  Solving for Ux, Initial residual = 0.0646068, Final residual = 0.00574564, No Iterations 2
smoothSolver:  Solving for Uy, Initial residual = 0.127351, Final residual = 0.0126302, No Iterations 2
GAMG:  Solving for p, Initial residual = 0.108265, Final residual = 0.00650301, No Iterations 2
time step continuity errors : sum local = 0.00773426, global = 0.000230361, cumulative = 0.0128336
ExecutionTime = 0.83 s  ClockTime = 1 s

Time = 60

smoothSolver:  Solving for Ux, Initial residual = 0.0598307, Final residual = 0.00541863, No Iterations 2
smoothSolver:  Solving for Uy, Initial residual = 0.126376, Final residual = 0.0118521, No Iterations 2
GAMG:  Solving for p, Initial residual = 0.107059, Final residual = 0.00610386, No Iterations 2
time step continuity errors : sum local = 0.00730651, global = 0.000212205, cumulative = 0.0130458
ExecutionTime = 0.91 s  ClockTime = 1 s

Time = 61

smoothSolver:  Solving for Ux, Initial residual = 0.0542115, Final residual = 0.0048649, No Iterations 2
smoothSolver:  Solving for Uy, Initial residual = 0.125543, Final residual = 0.0107293, No Iterations 2
GAMG:  Solving for p, Initial residual = 0.100458, Final residual = 0.00512278, No Iterations 2
time step continuity errors : sum local = 0.00626024, global = 0.000148952, cumulative = 0.0131948
ExecutionTime = 0.93 s  ClockTime = 1 s

Time = 62

smoothSolver:  Solving for Ux, Initial residual = 0.0481053, Final residual = 0.0041106, No Iterations 2
smoothSolver:  Solving for Uy, Initial residual = 0.119582, Final residual = 0.00940625, No Iterations 2
GAMG:  Solving for p, Initial residual = 0.097725, Final residual = 0.00503396, No Iterations 2
time step continuity errors : sum local = 0.00605557, global = 3.52763e-05, cumulative = 0.0132301
ExecutionTime = 0.94 s  ClockTime = 1 s

Time = 63

smoothSolver:  Solving for Ux, Initial residual = 0.0394615, Final residual = 0.00352326, No Iterations 2
smoothSolver:  Solving for Uy, Initial residual = 0.109573, Final residual = 0.00846342, No Iterations 2
GAMG:  Solving for p, Initial residual = 0.0924836, Final residual = 0.00499375, No Iterations 2
time step continuity errors : sum local = 0.00588013, global = -3.8578e-05, cumulative = 0.0131915
ExecutionTime = 0.96 s  ClockTime = 1 s

Time = 64

smoothSolver:  Solving for Ux, Initial residual = 0.0340447, Final residual = 0.00172712, No Iterations 3
smoothSolver:  Solving for Uy, Initial residual = 0.0931082, Final residual = 0.00739263, No Iterations 2
GAMG:  Solving for p, Initial residual = 0.0838276, Final residual = 0.00496906, No Iterations 2
time step continuity errors : sum local = 0.00562108, global = 0.000128419, cumulative = 0.0133199
ExecutionTime = 0.98 s  ClockTime = 1 s

Time = 65

smoothSolver:  Solving for Ux, Initial residual = 0.0323313, Final residual = 0.00186304, No Iterations 3
smoothSolver:  Solving for Uy, Initial residual = 0.0838998, Final residual = 0.00740459, No Iterations 2
GAMG:  Solving for p, Initial residual = 0.0776328, Final residual = 0.00478704, No Iterations 2
time step continuity errors : sum local = 0.00524211, global = 0.000183264, cumulative = 0.0135032
ExecutionTime = 0.99 s  ClockTime = 1 s

Time = 66

smoothSolver:  Solving for Ux, Initial residual = 0.0326484, Final residual = 0.0019539, No Iterations 3
smoothSolver:  Solving for Uy, Initial residual = 0.0824333, Final residual = 0.00370686, No Iterations 3
GAMG:  Solving for p, Initial residual = 0.0824923, Final residual = 0.00502095, No Iterations 2
time step continuity errors : sum local = 0.0053589, global = -7.53794e-05, cumulative = 0.0134278
ExecutionTime = 1.01 s  ClockTime = 1 s

Time = 67

smoothSolver:  Solving for Ux, Initial residual = 0.0337912, Final residual = 0.0018587, No Iterations 3
smoothSolver:  Solving for Uy, Initial residual = 0.0842355, Final residual = 0.00403373, No Iterations 3
GAMG:  Solving for p, Initial residual = 0.0904127, Final residual = 0.0057351, No Iterations 2
time step continuity errors : sum local = 0.0060503, global = 0.000246645, cumulative = 0.0136744
ExecutionTime = 1.02 s  ClockTime = 1 s

Time = 68

smoothSolver:  Solving for Ux, Initial residual = 0.0342214, Final residual = 0.00178386, No Iterations 3
smoothSolver:  Solving for Uy, Initial residual = 0.0862423, Final residual = 0.00456393, No Iterations 3
GAMG:  Solving for p, Initial residual = 0.0966389, Final residual = 0.00607507, No Iterations 2
time step continuity errors : sum local = 0.00643904, global = 0.000311301, cumulative = 0.0139857
ExecutionTime = 1.04 s  ClockTime = 1 s

Time = 69

smoothSolver:  Solving for Ux, Initial residual = 0.03606, Final residual = 0.00182689, No Iterations 3
smoothSolver:  Solving for Uy, Initial residual = 0.0880333, Final residual = 0.00496307, No Iterations 3
GAMG:  Solving for p, Initial residual = 0.0984438, Final residual = 0.00637607, No Iterations 2
time step continuity errors : sum local = 0.00687862, global = 0.000328812, cumulative = 0.0143145
ExecutionTime = 1.06 s  ClockTime = 1 s

Time = 70

smoothSolver:  Solving for Ux, Initial residual = 0.0382297, Final residual = 0.00190414, No Iterations 3
smoothSolver:  Solving for Uy, Initial residual = 0.0905765, Final residual = 0.00529696, No Iterations 3
GAMG:  Solving for p, Initial residual = 0.097504, Final residual = 0.00691027, No Iterations 2
time step continuity errors : sum local = 0.00732009, global = 0.000262595, cumulative = 0.0145771
ExecutionTime = 1.07 s  ClockTime = 1 s

Time = 71

smoothSolver:  Solving for Ux, Initial residual = 0.040189, Final residual = 0.00199636, No Iterations 3
smoothSolver:  Solving for Uy, Initial residual = 0.0895861, Final residual = 0.00536513, No Iterations 3
GAMG:  Solving for p, Initial residual = 0.102181, Final residual = 0.00690107, No Iterations 2
time step continuity errors : sum local = 0.00716582, global = 0.000203111, cumulative = 0.0147802
ExecutionTime = 1.07 s  ClockTime = 1 s

Time = 72

smoothSolver:  Solving for Ux, Initial residual = 0.0416473, Final residual = 0.0019828, No Iterations 3
smoothSolver:  Solving for Uy, Initial residual = 0.0897217, Final residual = 0.0049957, No Iterations 3
GAMG:  Solving for p, Initial residual = 0.105518, Final residual = 0.00677237, No Iterations 2
time step continuity errors : sum local = 0.00695804, global = 0.000102514, cumulative = 0.0148828
ExecutionTime = 1.08 s  ClockTime = 1 s

Time = 73

smoothSolver:  Solving for Ux, Initial residual = 0.0400238, Final residual = 0.00186896, No Iterations 3
smoothSolver:  Solving for Uy, Initial residual = 0.0887163, Final residual = 0.00461835, No Iterations 3
GAMG:  Solving for p, Initial residual = 0.104405, Final residual = 0.00638154, No Iterations 2
time step continuity errors : sum local = 0.00650491, global = 0.000134934, cumulative = 0.0150177
ExecutionTime = 1.1 s  ClockTime = 1 s

Time = 74

smoothSolver:  Solving for Ux, Initial residual = 0.0372575, Final residual = 0.00371682, No Iterations 2
smoothSolver:  Solving for Uy, Initial residual = 0.0905257, Final residual = 0.00438191, No Iterations 3
GAMG:  Solving for p, Initial residual = 0.0974502, Final residual = 0.00613463, No Iterations 2
time step continuity errors : sum local = 0.00626636, global = 0.000181093, cumulative = 0.0151988
ExecutionTime = 1.11 s  ClockTime = 1 s

Time = 75

smoothSolver:  Solving for Ux, Initial residual = 0.0345778, Final residual = 0.00335567, No Iterations 2
smoothSolver:  Solving for Uy, Initial residual = 0.0907552, Final residual = 0.00891913, No Iterations 2
GAMG:  Solving for p, Initial residual = 0.0931943, Final residual = 0.00561497, No Iterations 2
time step continuity errors : sum local = 0.00579342, global = 0.000203021, cumulative = 0.0154018
ExecutionTime = 1.13 s  ClockTime = 1 s

Time = 76

smoothSolver:  Solving for Ux, Initial residual = 0.0313147, Final residual = 0.00289177, No Iterations 2
smoothSolver:  Solving for Uy, Initial residual = 0.0905454, Final residual = 0.00887177, No Iterations 2
GAMG:  Solving for p, Initial residual = 0.0916838, Final residual = 0.00516339, No Iterations 2
time step continuity errors : sum local = 0.00534328, global = 0.000192664, cumulative = 0.0155945
ExecutionTime = 1.14 s  ClockTime = 1 s

Time = 77

smoothSolver:  Solving for Ux, Initial residual = 0.0285677, Final residual = 0.00254479, No Iterations 2
smoothSolver:  Solving for Uy, Initial residual = 0.0864446, Final residual = 0.0038459, No Iterations 3
GAMG:  Solving for p, Initial residual = 0.0956533, Final residual = 0.00507371, No Iterations 2
time step continuity errors : sum local = 0.00523856, global = 0.000178622, cumulative = 0.0157731
ExecutionTime = 1.16 s  ClockTime = 1 s

Time = 78

smoothSolver:  Solving for Ux, Initial residual = 0.0263385, Final residual = 0.00236792, No Iterations 2
smoothSolver:  Solving for Uy, Initial residual = 0.0791949, Final residual = 0.00360445, No Iterations 3
GAMG:  Solving for p, Initial residual = 0.0932287, Final residual = 0.00482253, No Iterations 2
time step continuity errors : sum local = 0.00477856, global = 0.000154703, cumulative = 0.0159278
ExecutionTime = 1.19 s  ClockTime = 1 s

Time = 79

smoothSolver:  Solving for Ux, Initial residual = 0.0252831, Final residual = 0.00239427, No Iterations 2
smoothSolver:  Solving for Uy, Initial residual = 0.0730519, Final residual = 0.00354497, No Iterations 3
GAMG:  Solving for p, Initial residual = 0.09305, Final residual = 0.00483468, No Iterations 2
time step continuity errors : sum local = 0.00469208, global = 0.000198223, cumulative = 0.016126
ExecutionTime = 1.2 s  ClockTime = 1 s

Time = 80

smoothSolver:  Solving for Ux, Initial residual = 0.026067, Final residual = 0.00247939, No Iterations 2
smoothSolver:  Solving for Uy, Initial residual = 0.0680698, Final residual = 0.00301802, No Iterations 3
GAMG:  Solving for p, Initial residual = 0.0909365, Final residual = 0.00467643, No Iterations 2
time step continuity errors : sum local = 0.00456873, global = 0.000222567, cumulative = 0.0163486
ExecutionTime = 1.27 s  ClockTime = 1 s

Time = 81

smoothSolver:  Solving for Ux, Initial residual = 0.0261289, Final residual = 0.00249454, No Iterations 2
smoothSolver:  Solving for Uy, Initial residual = 0.0652709, Final residual = 0.00629134, No Iterations 2
GAMG:  Solving for p, Initial residual = 0.0904113, Final residual = 0.00445911, No Iterations 2
time step continuity errors : sum local = 0.00421057, global = 0.000213436, cumulative = 0.016562
ExecutionTime = 1.29 s  ClockTime = 1 s

Time = 82

smoothSolver:  Solving for Ux, Initial residual = 0.0249437, Final residual = 0.0024541, No Iterations 2
smoothSolver:  Solving for Uy, Initial residual = 0.0639065, Final residual = 0.00626265, No Iterations 2
GAMG:  Solving for p, Initial residual = 0.0832123, Final residual = 0.00442902, No Iterations 2
time step continuity errors : sum local = 0.00431597, global = 0.000219535, cumulative = 0.0167816
ExecutionTime = 1.29 s  ClockTime = 1 s

Time = 83

smoothSolver:  Solving for Ux, Initial residual = 0.0244184, Final residual = 0.00224791, No Iterations 2
smoothSolver:  Solving for Uy, Initial residual = 0.0633078, Final residual = 0.0059949, No Iterations 2
GAMG:  Solving for p, Initial residual = 0.0807282, Final residual = 0.00476694, No Iterations 2
time step continuity errors : sum local = 0.00441875, global = 0.00022929, cumulative = 0.0170108
ExecutionTime = 1.3 s  ClockTime = 1 s

Time = 84

smoothSolver:  Solving for Ux, Initial residual = 0.0221575, Final residual = 0.00194995, No Iterations 2
smoothSolver:  Solving for Uy, Initial residual = 0.061043, Final residual = 0.00584468, No Iterations 2
GAMG:  Solving for p, Initial residual = 0.0758331, Final residual = 0.004511, No Iterations 2
time step continuity errors : sum local = 0.0041785, global = 0.000225815, cumulative = 0.0172367
ExecutionTime = 1.3 s  ClockTime = 1 s

Time = 85

smoothSolver:  Solving for Ux, Initial residual = 0.021243, Final residual = 0.00178893, No Iterations 2
smoothSolver:  Solving for Uy, Initial residual = 0.0588928, Final residual = 0.0055382, No Iterations 2
GAMG:  Solving for p, Initial residual = 0.0743316, Final residual = 0.00448332, No Iterations 2
time step continuity errors : sum local = 0.00402965, global = 0.000238912, cumulative = 0.0174756
ExecutionTime = 1.32 s  ClockTime = 1 s

Time = 86

smoothSolver:  Solving for Ux, Initial residual = 0.0195294, Final residual = 0.00165533, No Iterations 2
smoothSolver:  Solving for Uy, Initial residual = 0.0564377, Final residual = 0.00503489, No Iterations 2
GAMG:  Solving for p, Initial residual = 0.0743251, Final residual = 0.00444396, No Iterations 2
time step continuity errors : sum local = 0.00386558, global = 0.000224916, cumulative = 0.0177005
ExecutionTime = 1.32 s  ClockTime = 1 s

Time = 87

smoothSolver:  Solving for Ux, Initial residual = 0.0176106, Final residual = 0.00159611, No Iterations 2
smoothSolver:  Solving for Uy, Initial residual = 0.0534195, Final residual = 0.00452545, No Iterations 2
GAMG:  Solving for p, Initial residual = 0.0731963, Final residual = 0.0042136, No Iterations 2
time step continuity errors : sum local = 0.00367385, global = 0.000193585, cumulative = 0.0178941
ExecutionTime = 1.33 s  ClockTime = 1 s

Time = 88

smoothSolver:  Solving for Ux, Initial residual = 0.015971, Final residual = 0.00156828, No Iterations 2
smoothSolver:  Solving for Uy, Initial residual = 0.0493051, Final residual = 0.00410315, No Iterations 2
GAMG:  Solving for p, Initial residual = 0.0722805, Final residual = 0.00419214, No Iterations 2
time step continuity errors : sum local = 0.00354893, global = 0.000196227, cumulative = 0.0180903
ExecutionTime = 1.33 s  ClockTime = 1 s

Time = 89

smoothSolver:  Solving for Ux, Initial residual = 0.0149742, Final residual = 0.000693631, No Iterations 3
smoothSolver:  Solving for Uy, Initial residual = 0.0448939, Final residual = 0.00397426, No Iterations 2
GAMG:  Solving for p, Initial residual = 0.0718906, Final residual = 0.00413364, No Iterations 2
time step continuity errors : sum local = 0.00346409, global = 0.000241638, cumulative = 0.0183319
ExecutionTime = 1.35 s  ClockTime = 1 s

Time = 90

smoothSolver:  Solving for Ux, Initial residual = 0.0139982, Final residual = 0.000683528, No Iterations 3
smoothSolver:  Solving for Uy, Initial residual = 0.0435392, Final residual = 0.00425094, No Iterations 2
GAMG:  Solving for p, Initial residual = 0.0729268, Final residual = 0.00408589, No Iterations 2
time step continuity errors : sum local = 0.0033844, global = 0.000236688, cumulative = 0.0185686
ExecutionTime = 1.35 s  ClockTime = 1 s

Time = 91

smoothSolver:  Solving for Ux, Initial residual = 0.0133288, Final residual = 0.000702319, No Iterations 3
smoothSolver:  Solving for Uy, Initial residual = 0.0439344, Final residual = 0.00199215, No Iterations 3
GAMG:  Solving for p, Initial residual = 0.0732861, Final residual = 0.00421322, No Iterations 2
time step continuity errors : sum local = 0.00336055, global = -8.1262e-06, cumulative = 0.0185605
ExecutionTime = 1.37 s  ClockTime = 1 s

Time = 92

smoothSolver:  Solving for Ux, Initial residual = 0.0129456, Final residual = 0.000702234, No Iterations 3
smoothSolver:  Solving for Uy, Initial residual = 0.0444766, Final residual = 0.00442296, No Iterations 2
GAMG:  Solving for p, Initial residual = 0.0715998, Final residual = 0.00383148, No Iterations 2
time step continuity errors : sum local = 0.00295998, global = 0.000125762, cumulative = 0.0186863
ExecutionTime = 1.38 s  ClockTime = 1 s

Time = 93

smoothSolver:  Solving for Ux, Initial residual = 0.0128625, Final residual = 0.000656716, No Iterations 3
smoothSolver:  Solving for Uy, Initial residual = 0.0444426, Final residual = 0.00208046, No Iterations 3
GAMG:  Solving for p, Initial residual = 0.07153, Final residual = 0.00364284, No Iterations 2
time step continuity errors : sum local = 0.00278841, global = 0.000132878, cumulative = 0.0188191
ExecutionTime = 1.38 s  ClockTime = 1 s

Time = 94

smoothSolver:  Solving for Ux, Initial residual = 0.0125181, Final residual = 0.000591078, No Iterations 3
smoothSolver:  Solving for Uy, Initial residual = 0.0436257, Final residual = 0.00196057, No Iterations 3
GAMG:  Solving for p, Initial residual = 0.070375, Final residual = 0.00347485, No Iterations 2
time step continuity errors : sum local = 0.00265934, global = 0.000126223, cumulative = 0.0189454
ExecutionTime = 1.39 s  ClockTime = 1 s

Time = 95

smoothSolver:  Solving for Ux, Initial residual = 0.0121762, Final residual = 0.000533205, No Iterations 3
smoothSolver:  Solving for Uy, Initial residual = 0.0411494, Final residual = 0.00409307, No Iterations 2
GAMG:  Solving for p, Initial residual = 0.0720132, Final residual = 0.00330483, No Iterations 2
time step continuity errors : sum local = 0.00251028, global = 9.73762e-05, cumulative = 0.0190427
ExecutionTime = 1.39 s  ClockTime = 1 s

Time = 96

smoothSolver:  Solving for Ux, Initial residual = 0.0116644, Final residual = 0.00114924, No Iterations 2
smoothSolver:  Solving for Uy, Initial residual = 0.0379449, Final residual = 0.0017277, No Iterations 3
GAMG:  Solving for p, Initial residual = 0.0715754, Final residual = 0.00333127, No Iterations 2
time step continuity errors : sum local = 0.00252127, global = 7.49386e-05, cumulative = 0.0191177
ExecutionTime = 1.41 s  ClockTime = 1 s

Time = 97

smoothSolver:  Solving for Ux, Initial residual = 0.0112856, Final residual = 0.00110244, No Iterations 2
smoothSolver:  Solving for Uy, Initial residual = 0.0335345, Final residual = 0.00331064, No Iterations 2
GAMG:  Solving for p, Initial residual = 0.0701315, Final residual = 0.00312331, No Iterations 2
time step continuity errors : sum local = 0.0023254, global = 8.05373e-05, cumulative = 0.0191982
ExecutionTime = 1.43 s  ClockTime = 1 s

Time = 98

smoothSolver:  Solving for Ux, Initial residual = 0.0105699, Final residual = 0.001036, No Iterations 2
smoothSolver:  Solving for Uy, Initial residual = 0.0302316, Final residual = 0.00301223, No Iterations 2
GAMG:  Solving for p, Initial residual = 0.0698926, Final residual = 0.00304871, No Iterations 2
time step continuity errors : sum local = 0.00230007, global = 6.94096e-05, cumulative = 0.0192676
ExecutionTime = 1.44 s  ClockTime = 1 s

Time = 99

smoothSolver:  Solving for Ux, Initial residual = 0.0103212, Final residual = 0.00100436, No Iterations 2
smoothSolver:  Solving for Uy, Initial residual = 0.0274291, Final residual = 0.00266772, No Iterations 2
GAMG:  Solving for p, Initial residual = 0.0688349, Final residual = 0.00296422, No Iterations 2
time step continuity errors : sum local = 0.00221462, global = 6.90196e-05, cumulative = 0.0193366
ExecutionTime = 1.44 s  ClockTime = 1 s

Time = 100

smoothSolver:  Solving for Ux, Initial residual = 0.0100165, Final residual = 0.000976282, No Iterations 2
smoothSolver:  Solving for Uy, Initial residual = 0.0262929, Final residual = 0.00254166, No Iterations 2
GAMG:  Solving for p, Initial residual = 0.0681559, Final residual = 0.00305605, No Iterations 2
time step continuity errors : sum local = 0.00225079, global = 6.09797e-05, cumulative = 0.0193976
ExecutionTime = 1.51 s  ClockTime = 2 s

Time = 101

smoothSolver:  Solving for Ux, Initial residual = 0.00958083, Final residual = 0.000933633, No Iterations 2
smoothSolver:  Solving for Uy, Initial residual = 0.0257952, Final residual = 0.00255857, No Iterations 2
GAMG:  Solving for p, Initial residual = 0.0677833, Final residual = 0.00309997, No Iterations 2
time step continuity errors : sum local = 0.00219216, global = 4.21531e-05, cumulative = 0.0194398
ExecutionTime = 1.53 s  ClockTime = 2 s

Time = 102

smoothSolver:  Solving for Ux, Initial residual = 0.00926001, Final residual = 0.000407581, No Iterations 3
smoothSolver:  Solving for Uy, Initial residual = 0.0252956, Final residual = 0.00117239, No Iterations 3
GAMG:  Solving for p, Initial residual = 0.0676466, Final residual = 0.0034803, No Iterations 2
time step continuity errors : sum local = 0.00238062, global = 5.96969e-07, cumulative = 0.0194404
ExecutionTime = 1.54 s  ClockTime = 2 s

Time = 103

smoothSolver:  Solving for Ux, Initial residual = 0.00904981, Final residual = 0.000424209, No Iterations 3
smoothSolver:  Solving for Uy, Initial residual = 0.0247167, Final residual = 0.00119548, No Iterations 3
GAMG:  Solving for p, Initial residual = 0.0662823, Final residual = 0.00361214, No Iterations 2
time step continuity errors : sum local = 0.0024275, global = -2.52783e-05, cumulative = 0.0194151
ExecutionTime = 1.55 s  ClockTime = 2 s

Time = 104

smoothSolver:  Solving for Ux, Initial residual = 0.0092265, Final residual = 0.000443758, No Iterations 3
smoothSolver:  Solving for Uy, Initial residual = 0.0242298, Final residual = 0.00117283, No Iterations 3
GAMG:  Solving for p, Initial residual = 0.066881, Final residual = 0.00383117, No Iterations 2
time step continuity errors : sum local = 0.00252566, global = -2.82243e-05, cumulative = 0.0193869
ExecutionTime = 1.57 s  ClockTime = 2 s

Time = 105

smoothSolver:  Solving for Ux, Initial residual = 0.00951992, Final residual = 0.000453632, No Iterations 3
smoothSolver:  Solving for Uy, Initial residual = 0.0247941, Final residual = 0.00117163, No Iterations 3
GAMG:  Solving for p, Initial residual = 0.0685263, Final residual = 0.00377244, No Iterations 2
time step continuity errors : sum local = 0.00246145, global = -3.17313e-05, cumulative = 0.0193551
ExecutionTime = 1.57 s  ClockTime = 2 s

Time = 106

smoothSolver:  Solving for Ux, Initial residual = 0.00979779, Final residual = 0.000448928, No Iterations 3
smoothSolver:  Solving for Uy, Initial residual = 0.0264676, Final residual = 0.00121648, No Iterations 3
GAMG:  Solving for p, Initial residual = 0.0695528, Final residual = 0.00374653, No Iterations 2
time step continuity errors : sum local = 0.00242688, global = -3.68053e-05, cumulative = 0.0193183
ExecutionTime = 1.59 s  ClockTime = 2 s

Time = 107

smoothSolver:  Solving for Ux, Initial residual = 0.0100022, Final residual = 0.000432059, No Iterations 3
smoothSolver:  Solving for Uy, Initial residual = 0.0282417, Final residual = 0.00130465, No Iterations 3
GAMG:  Solving for p, Initial residual = 0.0691423, Final residual = 0.00384245, No Iterations 2
time step continuity errors : sum local = 0.00251452, global = -3.91237e-05, cumulative = 0.0192792
ExecutionTime = 1.6 s  ClockTime = 2 s

Time = 108

smoothSolver:  Solving for Ux, Initial residual = 0.0101648, Final residual = 0.00100232, No Iterations 2
smoothSolver:  Solving for Uy, Initial residual = 0.0296137, Final residual = 0.00136105, No Iterations 3
GAMG:  Solving for p, Initial residual = 0.0698599, Final residual = 0.00403672, No Iterations 2
time step continuity errors : sum local = 0.00267405, global = -1.85366e-05, cumulative = 0.0192607
ExecutionTime = 1.61 s  ClockTime = 2 s

Time = 109

smoothSolver:  Solving for Ux, Initial residual = 0.0101727, Final residual = 0.000985385, No Iterations 2
smoothSolver:  Solving for Uy, Initial residual = 0.0297888, Final residual = 0.00134076, No Iterations 3
GAMG:  Solving for p, Initial residual = 0.0714616, Final residual = 0.00410989, No Iterations 2
time step continuity errors : sum local = 0.0027165, global = -1.27124e-06, cumulative = 0.0192594
ExecutionTime = 1.63 s  ClockTime = 2 s

Time = 110

smoothSolver:  Solving for Ux, Initial residual = 0.00998514, Final residual = 0.000932755, No Iterations 2
smoothSolver:  Solving for Uy, Initial residual = 0.0301379, Final residual = 0.00133695, No Iterations 3
GAMG:  Solving for p, Initial residual = 0.0707203, Final residual = 0.00414734, No Iterations 2
time step continuity errors : sum local = 0.00276267, global = 2.7105e-05, cumulative = 0.0192865
ExecutionTime = 1.63 s  ClockTime = 2 s

Time = 111

smoothSolver:  Solving for Ux, Initial residual = 0.00961999, Final residual = 0.000922241, No Iterations 2
smoothSolver:  Solving for Uy, Initial residual = 0.0292042, Final residual = 0.00290229, No Iterations 2
GAMG:  Solving for p, Initial residual = 0.0701066, Final residual = 0.00398046, No Iterations 2
time step continuity errors : sum local = 0.00262579, global = 5.32348e-05, cumulative = 0.0193397
ExecutionTime = 1.65 s  ClockTime = 2 s

Time = 112

smoothSolver:  Solving for Ux, Initial residual = 0.00911725, Final residual = 0.000908859, No Iterations 2
smoothSolver:  Solving for Uy, Initial residual = 0.0278514, Final residual = 0.00278199, No Iterations 2
GAMG:  Solving for p, Initial residual = 0.0700309, Final residual = 0.00366261, No Iterations 2
time step continuity errors : sum local = 0.00238686, global = 7.50952e-05, cumulative = 0.0194148
ExecutionTime = 1.66 s  ClockTime = 2 s

Time = 113

smoothSolver:  Solving for Ux, Initial residual = 0.00837287, Final residual = 0.000402266, No Iterations 3
smoothSolver:  Solving for Uy, Initial residual = 0.0257805, Final residual = 0.00114508, No Iterations 3
GAMG:  Solving for p, Initial residual = 0.0669091, Final residual = 0.00323593, No Iterations 2
time step continuity errors : sum local = 0.00208375, global = 7.44166e-05, cumulative = 0.0194893
ExecutionTime = 1.68 s  ClockTime = 2 s

Time = 114

smoothSolver:  Solving for Ux, Initial residual = 0.00752639, Final residual = 0.000379084, No Iterations 3
smoothSolver:  Solving for Uy, Initial residual = 0.023724, Final residual = 0.00099133, No Iterations 3
GAMG:  Solving for p, Initial residual = 0.062449, Final residual = 0.00296504, No Iterations 2
time step continuity errors : sum local = 0.00189096, global = 7.64525e-05, cumulative = 0.0195657
ExecutionTime = 1.69 s  ClockTime = 2 s

Time = 115

smoothSolver:  Solving for Ux, Initial residual = 0.00689187, Final residual = 0.000351888, No Iterations 3
smoothSolver:  Solving for Uy, Initial residual = 0.0214804, Final residual = 0.00085897, No Iterations 3
GAMG:  Solving for p, Initial residual = 0.0589344, Final residual = 0.00287712, No Iterations 2
time step continuity errors : sum local = 0.00179888, global = 5.58369e-05, cumulative = 0.0196215
ExecutionTime = 1.69 s  ClockTime = 2 s

Time = 116

smoothSolver:  Solving for Ux, Initial residual = 0.0062664, Final residual = 0.000313991, No Iterations 3
smoothSolver:  Solving for Uy, Initial residual = 0.0200105, Final residual = 0.00198184, No Iterations 2
GAMG:  Solving for p, Initial residual = 0.0542726, Final residual = 0.00253932, No Iterations 2
time step continuity errors : sum local = 0.00155211, global = 2.98203e-05, cumulative = 0.0196514
ExecutionTime = 1.71 s  ClockTime = 2 s

Time = 117

smoothSolver:  Solving for Ux, Initial residual = 0.00576229, Final residual = 0.000284719, No Iterations 3
smoothSolver:  Solving for Uy, Initial residual = 0.0186068, Final residual = 0.00183593, No Iterations 2
GAMG:  Solving for p, Initial residual = 0.0505449, Final residual = 0.00226624, No Iterations 2
time step continuity errors : sum local = 0.00135677, global = 3.8383e-06, cumulative = 0.0196552
ExecutionTime = 1.71 s  ClockTime = 2 s

Time = 118

smoothSolver:  Solving for Ux, Initial residual = 0.0053594, Final residual = 0.000263516, No Iterations 3
smoothSolver:  Solving for Uy, Initial residual = 0.0172589, Final residual = 0.00171052, No Iterations 2
GAMG:  Solving for p, Initial residual = 0.0475505, Final residual = 0.00212715, No Iterations 2
time step continuity errors : sum local = 0.0012463, global = -5.12342e-06, cumulative = 0.0196501
ExecutionTime = 1.73 s  ClockTime = 2 s

Time = 119

smoothSolver:  Solving for Ux, Initial residual = 0.0049779, Final residual = 0.000246745, No Iterations 3
smoothSolver:  Solving for Uy, Initial residual = 0.0161544, Final residual = 0.000723574, No Iterations 3
GAMG:  Solving for p, Initial residual = 0.0461026, Final residual = 0.00211281, No Iterations 2
time step continuity errors : sum local = 0.00121532, global = -1.23241e-05, cumulative = 0.0196378
ExecutionTime = 1.73 s  ClockTime = 2 s

Time = 120

smoothSolver:  Solving for Ux, Initial residual = 0.00455505, Final residual = 0.000232458, No Iterations 3
smoothSolver:  Solving for Uy, Initial residual = 0.0151525, Final residual = 0.00148833, No Iterations 2
GAMG:  Solving for p, Initial residual = 0.0437089, Final residual = 0.00201891, No Iterations 2
time step continuity errors : sum local = 0.0011422, global = -1.03736e-05, cumulative = 0.0196274
ExecutionTime = 1.75 s  ClockTime = 2 s

Time = 121

smoothSolver:  Solving for Ux, Initial residual = 0.00425411, Final residual = 0.00021171, No Iterations 3
smoothSolver:  Solving for Uy, Initial residual = 0.0142676, Final residual = 0.000604884, No Iterations 3
GAMG:  Solving for p, Initial residual = 0.0431997, Final residual = 0.0020291, No Iterations 2
time step continuity errors : sum local = 0.00113427, global = -1.65567e-05, cumulative = 0.0196108
ExecutionTime = 1.77 s  ClockTime = 2 s

Time = 122

smoothSolver:  Solving for Ux, Initial residual = 0.00389159, Final residual = 0.000194435, No Iterations 3
smoothSolver:  Solving for Uy, Initial residual = 0.0133253, Final residual = 0.00130722, No Iterations 2
GAMG:  Solving for p, Initial residual = 0.0412148, Final residual = 0.00189228, No Iterations 2
time step continuity errors : sum local = 0.00105078, global = -1.62073e-05, cumulative = 0.0195946
ExecutionTime = 1.79 s  ClockTime = 2 s

Time = 123

smoothSolver:  Solving for Ux, Initial residual = 0.00363339, Final residual = 0.000171407, No Iterations 3
smoothSolver:  Solving for Uy, Initial residual = 0.0124201, Final residual = 0.000531831, No Iterations 3
GAMG:  Solving for p, Initial residual = 0.0408327, Final residual = 0.00180123, No Iterations 2
time step continuity errors : sum local = 0.000996926, global = -1.4288e-05, cumulative = 0.0195803
ExecutionTime = 1.79 s  ClockTime = 2 s

Time = 124

smoothSolver:  Solving for Ux, Initial residual = 0.00332448, Final residual = 0.000151121, No Iterations 3
smoothSolver:  Solving for Uy, Initial residual = 0.0116006, Final residual = 0.000495159, No Iterations 3
GAMG:  Solving for p, Initial residual = 0.0393478, Final residual = 0.00163503, No Iterations 2
time step continuity errors : sum local = 0.000904386, global = -1.44277e-05, cumulative = 0.0195659
ExecutionTime = 1.8 s  ClockTime = 2 s

Time = 125

smoothSolver:  Solving for Ux, Initial residual = 0.00312255, Final residual = 0.000305278, No Iterations 2
smoothSolver:  Solving for Uy, Initial residual = 0.0107684, Final residual = 0.000460957, No Iterations 3
GAMG:  Solving for p, Initial residual = 0.0380254, Final residual = 0.00152769, No Iterations 2
time step continuity errors : sum local = 0.000846267, global = -1.3179e-05, cumulative = 0.0195527
ExecutionTime = 1.8 s  ClockTime = 2 s

Time = 126

smoothSolver:  Solving for Ux, Initial residual = 0.00298664, Final residual = 0.000296804, No Iterations 2
smoothSolver:  Solving for Uy, Initial residual = 0.00980076, Final residual = 0.00096499, No Iterations 2
GAMG:  Solving for p, Initial residual = 0.0360637, Final residual = 0.00143406, No Iterations 2
time step continuity errors : sum local = 0.000794687, global = -1.26901e-05, cumulative = 0.01954
ExecutionTime = 1.82 s  ClockTime = 2 s

Time = 127

smoothSolver:  Solving for Ux, Initial residual = 0.00286445, Final residual = 0.000282001, No Iterations 2
smoothSolver:  Solving for Uy, Initial residual = 0.00914513, Final residual = 0.000905411, No Iterations 2
GAMG:  Solving for p, Initial residual = 0.0350189, Final residual = 0.00143685, No Iterations 2
time step continuity errors : sum local = 0.000799304, global = -1.1997e-05, cumulative = 0.019528
ExecutionTime = 1.82 s  ClockTime = 2 s

Time = 128

smoothSolver:  Solving for Ux, Initial residual = 0.00280988, Final residual = 0.000271201, No Iterations 2
smoothSolver:  Solving for Uy, Initial residual = 0.00873919, Final residual = 0.00084088, No Iterations 2
GAMG:  Solving for p, Initial residual = 0.0338637, Final residual = 0.00145361, No Iterations 2
time step continuity errors : sum local = 0.00081229, global = -1.01112e-05, cumulative = 0.0195179
ExecutionTime = 1.83 s  ClockTime = 2 s

Time = 129

smoothSolver:  Solving for Ux, Initial residual = 0.00278841, Final residual = 0.000262549, No Iterations 2
smoothSolver:  Solving for Uy, Initial residual = 0.00858134, Final residual = 0.000796527, No Iterations 2
GAMG:  Solving for p, Initial residual = 0.0332962, Final residual = 0.001514, No Iterations 2
time step continuity errors : sum local = 0.00084627, global = -6.6135e-06, cumulative = 0.0195113
ExecutionTime = 1.83 s  ClockTime = 2 s

Time = 130

smoothSolver:  Solving for Ux, Initial residual = 0.00281237, Final residual = 0.000260365, No Iterations 2
smoothSolver:  Solving for Uy, Initial residual = 0.00860217, Final residual = 0.00077919, No Iterations 2
GAMG:  Solving for p, Initial residual = 0.0324678, Final residual = 0.00155957, No Iterations 2
time step continuity errors : sum local = 0.000873317, global = -2.89448e-06, cumulative = 0.0195084
ExecutionTime = 1.84 s  ClockTime = 2 s

Time = 131

smoothSolver:  Solving for Ux, Initial residual = 0.00286576, Final residual = 0.000258732, No Iterations 2
smoothSolver:  Solving for Uy, Initial residual = 0.00866429, Final residual = 0.000788493, No Iterations 2
GAMG:  Solving for p, Initial residual = 0.031139, Final residual = 0.00154627, No Iterations 2
time step continuity errors : sum local = 0.000867964, global = 1.92916e-07, cumulative = 0.0195086
ExecutionTime = 1.84 s  ClockTime = 2 s

Time = 132

smoothSolver:  Solving for Ux, Initial residual = 0.00287766, Final residual = 0.000259274, No Iterations 2
smoothSolver:  Solving for Uy, Initial residual = 0.00869324, Final residual = 0.000804762, No Iterations 2
GAMG:  Solving for p, Initial residual = 0.0291562, Final residual = 0.00149674, No Iterations 2
time step continuity errors : sum local = 0.000843176, global = 3.08165e-06, cumulative = 0.0195117
ExecutionTime = 1.86 s  ClockTime = 2 s

Time = 133

smoothSolver:  Solving for Ux, Initial residual = 0.00286693, Final residual = 0.000256028, No Iterations 2
smoothSolver:  Solving for Uy, Initial residual = 0.00871003, Final residual = 0.000817758, No Iterations 2
GAMG:  Solving for p, Initial residual = 0.027775, Final residual = 0.00150238, No Iterations 2
time step continuity errors : sum local = 0.000848629, global = 6.00443e-06, cumulative = 0.0195177
ExecutionTime = 1.86 s  ClockTime = 2 s

Time = 134

smoothSolver:  Solving for Ux, Initial residual = 0.00284596, Final residual = 0.000248129, No Iterations 2
smoothSolver:  Solving for Uy, Initial residual = 0.00867737, Final residual = 0.000839614, No Iterations 2
GAMG:  Solving for p, Initial residual = 0.0273364, Final residual = 0.00150506, No Iterations 2
time step continuity errors : sum local = 0.000850587, global = 8.72711e-06, cumulative = 0.0195264
ExecutionTime = 1.88 s  ClockTime = 2 s

Time = 135

smoothSolver:  Solving for Ux, Initial residual = 0.00280397, Final residual = 0.000234454, No Iterations 2
smoothSolver:  Solving for Uy, Initial residual = 0.00858887, Final residual = 0.00084645, No Iterations 2
GAMG:  Solving for p, Initial residual = 0.0273848, Final residual = 0.00150914, No Iterations 2
time step continuity errors : sum local = 0.000852666, global = 1.1158e-05, cumulative = 0.0195376
ExecutionTime = 1.88 s  ClockTime = 2 s

Time = 136

smoothSolver:  Solving for Ux, Initial residual = 0.00274237, Final residual = 0.000218277, No Iterations 2
smoothSolver:  Solving for Uy, Initial residual = 0.00840844, Final residual = 0.00036765, No Iterations 3
GAMG:  Solving for p, Initial residual = 0.0275916, Final residual = 0.00156575, No Iterations 2
time step continuity errors : sum local = 0.00088451, global = 1.38608e-05, cumulative = 0.0195514
ExecutionTime = 1.89 s  ClockTime = 2 s

Time = 137

smoothSolver:  Solving for Ux, Initial residual = 0.00265428, Final residual = 0.000201631, No Iterations 2
smoothSolver:  Solving for Uy, Initial residual = 0.00816154, Final residual = 0.000813428, No Iterations 2
GAMG:  Solving for p, Initial residual = 0.0273606, Final residual = 0.00148464, No Iterations 2
time step continuity errors : sum local = 0.000839504, global = 1.31208e-05, cumulative = 0.0195646
ExecutionTime = 1.89 s  ClockTime = 2 s

Time = 138

smoothSolver:  Solving for Ux, Initial residual = 0.00261136, Final residual = 0.000193227, No Iterations 2
smoothSolver:  Solving for Uy, Initial residual = 0.00782257, Final residual = 0.000339095, No Iterations 3
GAMG:  Solving for p, Initial residual = 0.0279452, Final residual = 0.00154421, No Iterations 2
time step continuity errors : sum local = 0.000874697, global = 1.62138e-05, cumulative = 0.0195808
ExecutionTime = 1.91 s  ClockTime = 2 s

Time = 139

smoothSolver:  Solving for Ux, Initial residual = 0.00256545, Final residual = 0.000187951, No Iterations 2
smoothSolver:  Solving for Uy, Initial residual = 0.00759961, Final residual = 0.000315717, No Iterations 3
GAMG:  Solving for p, Initial residual = 0.0275706, Final residual = 0.00145573, No Iterations 2
time step continuity errors : sum local = 0.000826502, global = 1.41107e-05, cumulative = 0.0195949
ExecutionTime = 1.91 s  ClockTime = 2 s

Time = 140

smoothSolver:  Solving for Ux, Initial residual = 0.00256759, Final residual = 0.000183092, No Iterations 2
smoothSolver:  Solving for Uy, Initial residual = 0.00732891, Final residual = 0.000711456, No Iterations 2
GAMG:  Solving for p, Initial residual = 0.0271785, Final residual = 0.00138446, No Iterations 2
time step continuity errors : sum local = 0.000783621, global = 1.27444e-05, cumulative = 0.0196076
ExecutionTime = 1.96 s  ClockTime = 2 s

Time = 141

smoothSolver:  Solving for Ux, Initial residual = 0.0025619, Final residual = 0.00017799, No Iterations 2
smoothSolver:  Solving for Uy, Initial residual = 0.00715419, Final residual = 0.000672865, No Iterations 2
GAMG:  Solving for p, Initial residual = 0.0270978, Final residual = 0.00138186, No Iterations 2
time step continuity errors : sum local = 0.000780317, global = 1.1033e-05, cumulative = 0.0196187
ExecutionTime = 1.97 s  ClockTime = 2 s

Time = 142

smoothSolver:  Solving for Ux, Initial residual = 0.00255611, Final residual = 0.000174383, No Iterations 2
smoothSolver:  Solving for Uy, Initial residual = 0.00708878, Final residual = 0.000621192, No Iterations 2
GAMG:  Solving for p, Initial residual = 0.0262581, Final residual = 0.00134192, No Iterations 2
time step continuity errors : sum local = 0.000756616, global = 9.05837e-06, cumulative = 0.0196277
ExecutionTime = 1.97 s  ClockTime = 2 s

Time = 143

smoothSolver:  Solving for Ux, Initial residual = 0.00253813, Final residual = 0.000170772, No Iterations 2
smoothSolver:  Solving for Uy, Initial residual = 0.00698725, Final residual = 0.000562336, No Iterations 2
GAMG:  Solving for p, Initial residual = 0.0255171, Final residual = 0.0012901, No Iterations 2
time step continuity errors : sum local = 0.000726592, global = 7.31219e-06, cumulative = 0.019635
ExecutionTime = 1.99 s  ClockTime = 2 s

Time = 144

smoothSolver:  Solving for Ux, Initial residual = 0.00247345, Final residual = 0.000166486, No Iterations 2
smoothSolver:  Solving for Uy, Initial residual = 0.00685365, Final residual = 0.000505842, No Iterations 2
GAMG:  Solving for p, Initial residual = 0.0246567, Final residual = 0.00122114, No Iterations 2
time step continuity errors : sum local = 0.000687021, global = 5.21794e-06, cumulative = 0.0196402
ExecutionTime = 1.99 s  ClockTime = 2 s

Time = 145

smoothSolver:  Solving for Ux, Initial residual = 0.00239957, Final residual = 0.000161427, No Iterations 2
smoothSolver:  Solving for Uy, Initial residual = 0.0066859, Final residual = 0.000471599, No Iterations 2
GAMG:  Solving for p, Initial residual = 0.0237496, Final residual = 0.00115665, No Iterations 2
time step continuity errors : sum local = 0.000650163, global = 3.0066e-06, cumulative = 0.0196433
ExecutionTime = 2 s  ClockTime = 2 s

Time = 146

smoothSolver:  Solving for Ux, Initial residual = 0.00233612, Final residual = 0.000156594, No Iterations 2
smoothSolver:  Solving for Uy, Initial residual = 0.00653199, Final residual = 0.000454135, No Iterations 2
GAMG:  Solving for p, Initial residual = 0.0228619, Final residual = 0.00109072, No Iterations 2
time step continuity errors : sum local = 0.000612881, global = 6.43067e-07, cumulative = 0.0196439
ExecutionTime = 2.02 s  ClockTime = 2 s

Time = 147

smoothSolver:  Solving for Ux, Initial residual = 0.00227404, Final residual = 0.000152178, No Iterations 2
smoothSolver:  Solving for Uy, Initial residual = 0.0063888, Final residual = 0.000444395, No Iterations 2
GAMG:  Solving for p, Initial residual = 0.0220311, Final residual = 0.00102653, No Iterations 2
time step continuity errors : sum local = 0.000576553, global = -1.5253e-06, cumulative = 0.0196424
ExecutionTime = 2.02 s  ClockTime = 2 s

Time = 148

smoothSolver:  Solving for Ux, Initial residual = 0.00219478, Final residual = 0.000147343, No Iterations 2
smoothSolver:  Solving for Uy, Initial residual = 0.00624816, Final residual = 0.000434864, No Iterations 2
GAMG:  Solving for p, Initial residual = 0.021395, Final residual = 0.000970095, No Iterations 2
time step continuity errors : sum local = 0.000544246, global = -3.06918e-06, cumulative = 0.0196393
ExecutionTime = 2.03 s  ClockTime = 2 s

Time = 149

smoothSolver:  Solving for Ux, Initial residual = 0.00209896, Final residual = 0.000142401, No Iterations 2
smoothSolver:  Solving for Uy, Initial residual = 0.00609186, Final residual = 0.000423157, No Iterations 2
GAMG:  Solving for p, Initial residual = 0.0208122, Final residual = 0.000918962, No Iterations 2
time step continuity errors : sum local = 0.000514944, global = -3.81471e-06, cumulative = 0.0196355
ExecutionTime = 2.03 s  ClockTime = 2 s

Time = 150

smoothSolver:  Solving for Ux, Initial residual = 0.00200194, Final residual = 0.000137263, No Iterations 2
smoothSolver:  Solving for Uy, Initial residual = 0.00594058, Final residual = 0.000410018, No Iterations 2
GAMG:  Solving for p, Initial residual = 0.0201664, Final residual = 0.000869032, No Iterations 2
time step continuity errors : sum local = 0.000486383, global = -3.9879e-06, cumulative = 0.0196315
ExecutionTime = 2.05 s  ClockTime = 2 s

Time = 151

smoothSolver:  Solving for Ux, Initial residual = 0.00189951, Final residual = 0.000131925, No Iterations 2
smoothSolver:  Solving for Uy, Initial residual = 0.00577423, Final residual = 0.000398421, No Iterations 2
GAMG:  Solving for p, Initial residual = 0.0195436, Final residual = 0.000821068, No Iterations 2
time step continuity errors : sum local = 0.000459422, global = -3.91644e-06, cumulative = 0.0196276
ExecutionTime = 2.05 s  ClockTime = 2 s

Time = 152

smoothSolver:  Solving for Ux, Initial residual = 0.00180374, Final residual = 0.000127398, No Iterations 2
smoothSolver:  Solving for Uy, Initial residual = 0.00560352, Final residual = 0.000388676, No Iterations 2
GAMG:  Solving for p, Initial residual = 0.0189944, Final residual = 0.000779671, No Iterations 2
time step continuity errors : sum local = 0.000436444, global = -3.68604e-06, cumulative = 0.0196239
ExecutionTime = 2.06 s  ClockTime = 2 s

Time = 153

smoothSolver:  Solving for Ux, Initial residual = 0.00172699, Final residual = 0.000123732, No Iterations 2
smoothSolver:  Solving for Uy, Initial residual = 0.00543027, Final residual = 0.000379403, No Iterations 2
GAMG:  Solving for p, Initial residual = 0.0185446, Final residual = 0.000751312, No Iterations 2
time step continuity errors : sum local = 0.000420709, global = -3.38214e-06, cumulative = 0.0196205
ExecutionTime = 2.06 s  ClockTime = 2 s

Time = 154

smoothSolver:  Solving for Ux, Initial residual = 0.00166532, Final residual = 0.000119723, No Iterations 2
smoothSolver:  Solving for Uy, Initial residual = 0.00525214, Final residual = 0.000368913, No Iterations 2
GAMG:  Solving for p, Initial residual = 0.018163, Final residual = 0.000732767, No Iterations 2
time step continuity errors : sum local = 0.000410567, global = -3.07309e-06, cumulative = 0.0196174
ExecutionTime = 2.08 s  ClockTime = 2 s

Time = 155

smoothSolver:  Solving for Ux, Initial residual = 0.00160973, Final residual = 0.000115119, No Iterations 2
smoothSolver:  Solving for Uy, Initial residual = 0.00507788, Final residual = 0.000357779, No Iterations 2
GAMG:  Solving for p, Initial residual = 0.0177615, Final residual = 0.00071772, No Iterations 2
time step continuity errors : sum local = 0.000402356, global = -2.82742e-06, cumulative = 0.0196146
ExecutionTime = 2.08 s  ClockTime = 2 s

Time = 156

smoothSolver:  Solving for Ux, Initial residual = 0.00155136, Final residual = 0.000109547, No Iterations 2
smoothSolver:  Solving for Uy, Initial residual = 0.0049013, Final residual = 0.000346044, No Iterations 2
GAMG:  Solving for p, Initial residual = 0.0173251, Final residual = 0.000703986, No Iterations 2
time step continuity errors : sum local = 0.00039487, global = -2.71501e-06, cumulative = 0.0196119
ExecutionTime = 2.1 s  ClockTime = 2 s

Time = 157

smoothSolver:  Solving for Ux, Initial residual = 0.0014907, Final residual = 0.000103932, No Iterations 2
smoothSolver:  Solving for Uy, Initial residual = 0.00470195, Final residual = 0.00033175, No Iterations 2
GAMG:  Solving for p, Initial residual = 0.0169546, Final residual = 0.00069716, No Iterations 2
time step continuity errors : sum local = 0.000391136, global = -2.74828e-06, cumulative = 0.0196092
ExecutionTime = 2.12 s  ClockTime = 2 s

Time = 158

smoothSolver:  Solving for Ux, Initial residual = 0.00143745, Final residual = 9.83902e-05, No Iterations 2
smoothSolver:  Solving for Uy, Initial residual = 0.00450124, Final residual = 0.000317609, No Iterations 2
GAMG:  Solving for p, Initial residual = 0.0167729, Final residual = 0.00070209, No Iterations 2
time step continuity errors : sum local = 0.000394107, global = -2.77647e-06, cumulative = 0.0196064
ExecutionTime = 2.13 s  ClockTime = 2 s

Time = 159

smoothSolver:  Solving for Ux, Initial residual = 0.00139935, Final residual = 9.30774e-05, No Iterations 2
smoothSolver:  Solving for Uy, Initial residual = 0.00433061, Final residual = 0.000303482, No Iterations 2
GAMG:  Solving for p, Initial residual = 0.0166682, Final residual = 0.000715069, No Iterations 2
time step continuity errors : sum local = 0.000401883, global = -2.59443e-06, cumulative = 0.0196038
ExecutionTime = 2.13 s  ClockTime = 2 s

Time = 160

smoothSolver:  Solving for Ux, Initial residual = 0.00136942, Final residual = 8.82719e-05, No Iterations 2
smoothSolver:  Solving for Uy, Initial residual = 0.00421304, Final residual = 0.000288805, No Iterations 2
GAMG:  Solving for p, Initial residual = 0.0166378, Final residual = 0.00073446, No Iterations 2
time step continuity errors : sum local = 0.000413192, global = -2.08483e-06, cumulative = 0.0196017
ExecutionTime = 2.2 s  ClockTime = 2 s

Time = 161

smoothSolver:  Solving for Ux, Initial residual = 0.00134296, Final residual = 8.44183e-05, No Iterations 2
smoothSolver:  Solving for Uy, Initial residual = 0.0041157, Final residual = 0.000274019, No Iterations 2
GAMG:  Solving for p, Initial residual = 0.0166359, Final residual = 0.000760923, No Iterations 2
time step continuity errors : sum local = 0.000428514, global = -1.4257e-06, cumulative = 0.0196003
ExecutionTime = 2.21 s  ClockTime = 2 s

Time = 162

smoothSolver:  Solving for Ux, Initial residual = 0.001317, Final residual = 8.25747e-05, No Iterations 2
smoothSolver:  Solving for Uy, Initial residual = 0.00404103, Final residual = 0.000261352, No Iterations 2
GAMG:  Solving for p, Initial residual = 0.0166851, Final residual = 0.000775773, No Iterations 2
time step continuity errors : sum local = 0.000437057, global = -9.10485e-07, cumulative = 0.0195994
ExecutionTime = 2.21 s  ClockTime = 2 s

Time = 163

smoothSolver:  Solving for Ux, Initial residual = 0.00129508, Final residual = 8.24903e-05, No Iterations 2
smoothSolver:  Solving for Uy, Initial residual = 0.00399001, Final residual = 0.000256931, No Iterations 2
GAMG:  Solving for p, Initial residual = 0.0166672, Final residual = 0.000781787, No Iterations 2
time step continuity errors : sum local = 0.000440784, global = -6.06698e-07, cumulative = 0.0195988
ExecutionTime = 2.22 s  ClockTime = 2 s

Time = 164

smoothSolver:  Solving for Ux, Initial residual = 0.00128426, Final residual = 8.44492e-05, No Iterations 2
smoothSolver:  Solving for Uy, Initial residual = 0.00395863, Final residual = 0.000264692, No Iterations 2
GAMG:  Solving for p, Initial residual = 0.0165633, Final residual = 0.000778825, No Iterations 2
time step continuity errors : sum local = 0.000439258, global = -4.29354e-07, cumulative = 0.0195983
ExecutionTime = 2.22 s  ClockTime = 2 s

Time = 165

smoothSolver:  Solving for Ux, Initial residual = 0.00128507, Final residual = 8.66972e-05, No Iterations 2
smoothSolver:  Solving for Uy, Initial residual = 0.00399502, Final residual = 0.000279927, No Iterations 2
GAMG:  Solving for p, Initial residual = 0.0164212, Final residual = 0.00076571, No Iterations 2
time step continuity errors : sum local = 0.00043186, global = -2.42597e-07, cumulative = 0.0195981
ExecutionTime = 2.24 s  ClockTime = 2 s

Time = 166

smoothSolver:  Solving for Ux, Initial residual = 0.00129566, Final residual = 8.86548e-05, No Iterations 2
smoothSolver:  Solving for Uy, Initial residual = 0.00406601, Final residual = 0.000292693, No Iterations 2
GAMG:  Solving for p, Initial residual = 0.0162211, Final residual = 0.000745737, No Iterations 2
time step continuity errors : sum local = 0.000420562, global = 1.51818e-08, cumulative = 0.0195981
ExecutionTime = 2.24 s  ClockTime = 2 s

Time = 167

smoothSolver:  Solving for Ux, Initial residual = 0.00131127, Final residual = 8.96921e-05, No Iterations 2
smoothSolver:  Solving for Uy, Initial residual = 0.00413184, Final residual = 0.000300674, No Iterations 2
GAMG:  Solving for p, Initial residual = 0.0160001, Final residual = 0.000722852, No Iterations 2
time step continuity errors : sum local = 0.000407535, global = 3.08593e-07, cumulative = 0.0195984
ExecutionTime = 2.25 s  ClockTime = 2 s

Time = 168

smoothSolver:  Solving for Ux, Initial residual = 0.0013245, Final residual = 8.99691e-05, No Iterations 2
smoothSolver:  Solving for Uy, Initial residual = 0.00417651, Final residual = 0.000306255, No Iterations 2
GAMG:  Solving for p, Initial residual = 0.0156907, Final residual = 0.0007022, No Iterations 2
time step continuity errors : sum local = 0.000395262, global = 5.30756e-07, cumulative = 0.0195989
ExecutionTime = 2.25 s  ClockTime = 2 s

Time = 169

smoothSolver:  Solving for Ux, Initial residual = 0.00133439, Final residual = 8.93839e-05, No Iterations 2
smoothSolver:  Solving for Uy, Initial residual = 0.00418674, Final residual = 0.000307557, No Iterations 2
GAMG:  Solving for p, Initial residual = 0.0153427, Final residual = 0.000697721, No Iterations 2
time step continuity errors : sum local = 0.000392097, global = 6.78139e-07, cumulative = 0.0195996
ExecutionTime = 2.27 s  ClockTime = 2 s

Time = 170

smoothSolver:  Solving for Ux, Initial residual = 0.00134225, Final residual = 8.83617e-05, No Iterations 2
smoothSolver:  Solving for Uy, Initial residual = 0.00417097, Final residual = 0.000304057, No Iterations 2
GAMG:  Solving for p, Initial residual = 0.0150506, Final residual = 0.000702151, No Iterations 2
time step continuity errors : sum local = 0.000394179, global = 7.4766e-07, cumulative = 0.0196004
ExecutionTime = 2.27 s  ClockTime = 2 s

Time = 171

[...]
time step continuity errors : sum local = 2.80584e-06, global = 3.85664e-08, cumulative = 0.0187807
ExecutionTime = 5.23 s  ClockTime = 5 s

Time = 459

smoothSolver:  Solving for Ux, Initial residual = 1.00699e-05, Final residual = 3.03892e-06, No Iterations 1
smoothSolver:  Solving for Uy, Initial residual = 2.27116e-05, Final residual = 7.35394e-06, No Iterations 1
GAMG:  Solving for p, Initial residual = 7.46826e-05, Final residual = 5.78035e-06, No Iterations 2
time step continuity errors : sum local = 2.52581e-06, global = 5.83634e-08, cumulative = 0.0187808
ExecutionTime = 5.23 s  ClockTime = 5 s

Time = 460

smoothSolver:  Solving for Ux, Initial residual = 9.80893e-06, Final residual = 9.80893e-06, No Iterations 0
smoothSolver:  Solving for Uy, Initial residual = 2.24972e-05, Final residual = 6.99581e-06, No Iterations 1
GAMG:  Solving for p, Initial residual = 5.26034e-05, Final residual = 3.4813e-06, No Iterations 2
time step continuity errors : sum local = 1.52121e-06, global = 3.70639e-08, cumulative = 0.0187808
ExecutionTime = 5.27 s  ClockTime = 5 s

Time = 461

smoothSolver:  Solving for Ux, Initial residual = 1.15775e-05, Final residual = 3.56426e-06, No Iterations 1
smoothSolver:  Solving for Uy, Initial residual = 1.74231e-05, Final residual = 5.67402e-06, No Iterations 1
GAMG:  Solving for p, Initial residual = 6.58069e-05, Final residual = 6.27059e-06, No Iterations 2
time step continuity errors : sum local = 2.74006e-06, global = 2.56736e-08, cumulative = 0.0187808
ExecutionTime = 5.27 s  ClockTime = 5 s

Time = 462

smoothSolver:  Solving for Ux, Initial residual = 1.06495e-05, Final residual = 3.35706e-06, No Iterations 1
smoothSolver:  Solving for Uy, Initial residual = 2.08671e-05, Final residual = 6.41801e-06, No Iterations 1
GAMG:  Solving for p, Initial residual = 6.444e-05, Final residual = 5.98433e-06, No Iterations 2
time step continuity errors : sum local = 2.61508e-06, global = -2.65337e-08, cumulative = 0.0187808
ExecutionTime = 5.28 s  ClockTime = 5 s

Time = 463

smoothSolver:  Solving for Ux, Initial residual = 1.02641e-05, Final residual = 3.22643e-06, No Iterations 1
smoothSolver:  Solving for Uy, Initial residual = 2.35457e-05, Final residual = 7.55408e-06, No Iterations 1
GAMG:  Solving for p, Initial residual = 7.04163e-05, Final residual = 5.68154e-06, No Iterations 2
time step continuity errors : sum local = 2.48288e-06, global = -3.89252e-08, cumulative = 0.0187808
ExecutionTime = 5.28 s  ClockTime = 5 s

Time = 464

smoothSolver:  Solving for Ux, Initial residual = 9.67072e-06, Final residual = 9.67072e-06, No Iterations 0
smoothSolver:  Solving for Uy, Initial residual = 2.49373e-05, Final residual = 8.2002e-06, No Iterations 1
GAMG:  Solving for p, Initial residual = 5.89003e-05, Final residual = 4.11397e-06, No Iterations 2
time step continuity errors : sum local = 1.79789e-06, global = -5.06615e-08, cumulative = 0.0187807
ExecutionTime = 5.3 s  ClockTime = 5 s

Time = 465

smoothSolver:  Solving for Ux, Initial residual = 1.14679e-05, Final residual = 3.61674e-06, No Iterations 1
smoothSolver:  Solving for Uy, Initial residual = 1.92595e-05, Final residual = 6.84733e-06, No Iterations 1
GAMG:  Solving for p, Initial residual = 7.42909e-05, Final residual = 6.20863e-06, No Iterations 2
time step continuity errors : sum local = 2.71332e-06, global = -4.81801e-08, cumulative = 0.0187807
ExecutionTime = 5.3 s  ClockTime = 5 s

Time = 466

smoothSolver:  Solving for Ux, Initial residual = 1.05663e-05, Final residual = 3.33796e-06, No Iterations 1
smoothSolver:  Solving for Uy, Initial residual = 2.14586e-05, Final residual = 6.99408e-06, No Iterations 1
GAMG:  Solving for p, Initial residual = 7.11199e-05, Final residual = 6.05028e-06, No Iterations 2
time step continuity errors : sum local = 2.64411e-06, global = -3.23922e-08, cumulative = 0.0187806
ExecutionTime = 5.32 s  ClockTime = 5 s

Time = 467

smoothSolver:  Solving for Ux, Initial residual = 1.07385e-05, Final residual = 3.41111e-06, No Iterations 1
smoothSolver:  Solving for Uy, Initial residual = 2.17202e-05, Final residual = 6.73204e-06, No Iterations 1
GAMG:  Solving for p, Initial residual = 6.37307e-05, Final residual = 6.13437e-06, No Iterations 2
time step continuity errors : sum local = 2.68077e-06, global = 2.23272e-08, cumulative = 0.0187807
ExecutionTime = 5.33 s  ClockTime = 5 s

Time = 468

smoothSolver:  Solving for Ux, Initial residual = 1.07398e-05, Final residual = 3.46196e-06, No Iterations 1
smoothSolver:  Solving for Uy, Initial residual = 2.48077e-05, Final residual = 7.87357e-06, No Iterations 1
GAMG:  Solving for p, Initial residual = 6.75998e-05, Final residual = 6.07975e-06, No Iterations 2
time step continuity errors : sum local = 2.6568e-06, global = 5.86675e-08, cumulative = 0.0187807
ExecutionTime = 5.33 s  ClockTime = 5 s

Time = 469

smoothSolver:  Solving for Ux, Initial residual = 1.04517e-05, Final residual = 3.35622e-06, No Iterations 1
smoothSolver:  Solving for Uy, Initial residual = 2.65362e-05, Final residual = 8.76498e-06, No Iterations 1
GAMG:  Solving for p, Initial residual = 7.45357e-05, Final residual = 6.18993e-06, No Iterations 2
time step continuity errors : sum local = 2.70487e-06, global = 7.19445e-08, cumulative = 0.0187808
ExecutionTime = 5.35 s  ClockTime = 5 s

Time = 470

smoothSolver:  Solving for Ux, Initial residual = 1.02916e-05, Final residual = 3.17575e-06, No Iterations 1
smoothSolver:  Solving for Uy, Initial residual = 2.68018e-05, Final residual = 8.95995e-06, No Iterations 1
GAMG:  Solving for p, Initial residual = 7.52013e-05, Final residual = 6.01557e-06, No Iterations 2
time step continuity errors : sum local = 2.62866e-06, global = 8.4922e-08, cumulative = 0.0187809
ExecutionTime = 5.36 s  ClockTime = 5 s

Time = 471

smoothSolver:  Solving for Ux, Initial residual = 1.02407e-05, Final residual = 3.17313e-06, No Iterations 1
smoothSolver:  Solving for Uy, Initial residual = 2.59061e-05, Final residual = 8.47403e-06, No Iterations 1
GAMG:  Solving for p, Initial residual = 6.60411e-05, Final residual = 5.82319e-06, No Iterations 2
time step continuity errors : sum local = 2.54463e-06, global = 6.29183e-08, cumulative = 0.0187809
ExecutionTime = 5.38 s  ClockTime = 5 s

Time = 472

smoothSolver:  Solving for Ux, Initial residual = 1.01988e-05, Final residual = 3.18773e-06, No Iterations 1
smoothSolver:  Solving for Uy, Initial residual = 2.42985e-05, Final residual = 7.56111e-06, No Iterations 1
GAMG:  Solving for p, Initial residual = 5.876e-05, Final residual = 5.58037e-06, No Iterations 2
time step continuity errors : sum local = 2.4386e-06, global = 1.29226e-08, cumulative = 0.0187809
ExecutionTime = 5.38 s  ClockTime = 5 s

Time = 473

smoothSolver:  Solving for Ux, Initial residual = 9.84545e-06, Final residual = 9.84545e-06, No Iterations 0
smoothSolver:  Solving for Uy, Initial residual = 2.38074e-05, Final residual = 7.50329e-06, No Iterations 1
GAMG:  Solving for p, Initial residual = 3.97777e-05, Final residual = 2.94275e-06, No Iterations 2
time step continuity errors : sum local = 1.28601e-06, global = -2.45394e-08, cumulative = 0.0187809
ExecutionTime = 5.4 s  ClockTime = 5 s

Time = 474

smoothSolver:  Solving for Ux, Initial residual = 1.13679e-05, Final residual = 3.76545e-06, No Iterations 1
smoothSolver:  Solving for Uy, Initial residual = 1.87582e-05, Final residual = 6.4924e-06, No Iterations 1
GAMG:  Solving for p, Initial residual = 6.37532e-05, Final residual = 5.94141e-06, No Iterations 2
time step continuity errors : sum local = 2.59651e-06, global = -2.92347e-08, cumulative = 0.0187809
ExecutionTime = 5.41 s  ClockTime = 5 s

Time = 475

smoothSolver:  Solving for Ux, Initial residual = 9.81789e-06, Final residual = 9.81789e-06, No Iterations 0
smoothSolver:  Solving for Uy, Initial residual = 2.16585e-05, Final residual = 7.24043e-06, No Iterations 1
GAMG:  Solving for p, Initial residual = 5.08502e-05, Final residual = 3.43206e-06, No Iterations 2
time step continuity errors : sum local = 1.49992e-06, global = -5.37255e-08, cumulative = 0.0187808
ExecutionTime = 5.41 s  ClockTime = 6 s

Time = 476

smoothSolver:  Solving for Ux, Initial residual = 1.11071e-05, Final residual = 3.59324e-06, No Iterations 1
smoothSolver:  Solving for Uy, Initial residual = 1.67902e-05, Final residual = 5.97203e-06, No Iterations 1
GAMG:  Solving for p, Initial residual = 6.9446e-05, Final residual = 5.8698e-06, No Iterations 2
time step continuity errors : sum local = 2.56531e-06, global = -6.99883e-08, cumulative = 0.0187808
ExecutionTime = 5.43 s  ClockTime = 6 s

Time = 477

smoothSolver:  Solving for Ux, Initial residual = 9.83418e-06, Final residual = 9.83418e-06, No Iterations 0
smoothSolver:  Solving for Uy, Initial residual = 1.98793e-05, Final residual = 6.40407e-06, No Iterations 1
GAMG:  Solving for p, Initial residual = 5.08743e-05, Final residual = 3.06776e-06, No Iterations 2
time step continuity errors : sum local = 1.34072e-06, global = -4.55076e-08, cumulative = 0.0187807
ExecutionTime = 5.45 s  ClockTime = 6 s

Time = 478

smoothSolver:  Solving for Ux, Initial residual = 1.12041e-05, Final residual = 3.58712e-06, No Iterations 1
smoothSolver:  Solving for Uy, Initial residual = 1.50899e-05, Final residual = 4.92329e-06, No Iterations 1
GAMG:  Solving for p, Initial residual = 6.4317e-05, Final residual = 2.83192e-06, No Iterations 3
time step continuity errors : sum local = 1.23764e-06, global = 3.00168e-08, cumulative = 0.0187807
ExecutionTime = 5.45 s  ClockTime = 6 s

Time = 479

smoothSolver:  Solving for Ux, Initial residual = 1.05882e-05, Final residual = 3.37552e-06, No Iterations 1
smoothSolver:  Solving for Uy, Initial residual = 1.93204e-05, Final residual = 5.86608e-06, No Iterations 1
GAMG:  Solving for p, Initial residual = 6.25735e-05, Final residual = 5.84761e-06, No Iterations 2
time step continuity errors : sum local = 2.55553e-06, global = 1.64457e-08, cumulative = 0.0187808
ExecutionTime = 5.46 s  ClockTime = 6 s

Time = 480

smoothSolver:  Solving for Ux, Initial residual = 1.00555e-05, Final residual = 3.23308e-06, No Iterations 1
smoothSolver:  Solving for Uy, Initial residual = 2.20298e-05, Final residual = 6.95259e-06, No Iterations 1
GAMG:  Solving for p, Initial residual = 6.93137e-05, Final residual = 5.75379e-06, No Iterations 2
time step continuity errors : sum local = 2.51445e-06, global = 3.52655e-08, cumulative = 0.0187808
ExecutionTime = 5.5 s  ClockTime = 6 s

Time = 481

smoothSolver:  Solving for Ux, Initial residual = 9.5778e-06, Final residual = 9.5778e-06, No Iterations 0
smoothSolver:  Solving for Uy, Initial residual = 2.40962e-05, Final residual = 7.92063e-06, No Iterations 1
GAMG:  Solving for p, Initial residual = 6.05691e-05, Final residual = 4.16518e-06, No Iterations 2
time step continuity errors : sum local = 1.82018e-06, global = 5.12206e-08, cumulative = 0.0187809
ExecutionTime = 5.52 s  ClockTime = 6 s

Time = 482

smoothSolver:  Solving for Ux, Initial residual = 1.12873e-05, Final residual = 3.5835e-06, No Iterations 1
smoothSolver:  Solving for Uy, Initial residual = 1.86139e-05, Final residual = 6.62347e-06, No Iterations 1
GAMG:  Solving for p, Initial residual = 7.8374e-05, Final residual = 6.55611e-06, No Iterations 2
time step continuity errors : sum local = 2.86501e-06, global = 5.98746e-08, cumulative = 0.0187809
ExecutionTime = 5.53 s  ClockTime = 6 s

Time = 483

smoothSolver:  Solving for Ux, Initial residual = 1.0283e-05, Final residual = 3.17692e-06, No Iterations 1
smoothSolver:  Solving for Uy, Initial residual = 2.18197e-05, Final residual = 7.17951e-06, No Iterations 1
GAMG:  Solving for p, Initial residual = 7.62466e-05, Final residual = 6.33259e-06, No Iterations 2
time step continuity errors : sum local = 2.76733e-06, global = 6.30299e-08, cumulative = 0.018781
ExecutionTime = 5.55 s  ClockTime = 6 s

Time = 484

smoothSolver:  Solving for Ux, Initial residual = 1.04779e-05, Final residual = 3.2438e-06, No Iterations 1
smoothSolver:  Solving for Uy, Initial residual = 2.1877e-05, Final residual = 6.73951e-06, No Iterations 1
GAMG:  Solving for p, Initial residual = 6.85525e-05, Final residual = 6.36843e-06, No Iterations 2
time step continuity errors : sum local = 2.78308e-06, global = 1.50806e-08, cumulative = 0.018781
ExecutionTime = 5.55 s  ClockTime = 6 s

Time = 485

smoothSolver:  Solving for Ux, Initial residual = 1.05456e-05, Final residual = 3.3512e-06, No Iterations 1
smoothSolver:  Solving for Uy, Initial residual = 2.38324e-05, Final residual = 7.43999e-06, No Iterations 1
GAMG:  Solving for p, Initial residual = 6.83761e-05, Final residual = 6.04247e-06, No Iterations 2
time step continuity errors : sum local = 2.64073e-06, global = -2.40685e-08, cumulative = 0.018781
ExecutionTime = 5.57 s  ClockTime = 6 s

Time = 486

smoothSolver:  Solving for Ux, Initial residual = 1.02462e-05, Final residual = 3.29548e-06, No Iterations 1
smoothSolver:  Solving for Uy, Initial residual = 2.58503e-05, Final residual = 8.33975e-06, No Iterations 1
GAMG:  Solving for p, Initial residual = 7.31425e-05, Final residual = 6.32043e-06, No Iterations 2
time step continuity errors : sum local = 2.76231e-06, global = -3.69429e-08, cumulative = 0.0187809
ExecutionTime = 5.58 s  ClockTime = 6 s

Time = 487

smoothSolver:  Solving for Ux, Initial residual = 9.96337e-06, Final residual = 9.96337e-06, No Iterations 0
smoothSolver:  Solving for Uy, Initial residual = 2.64679e-05, Final residual = 8.76528e-06, No Iterations 1
GAMG:  Solving for p, Initial residual = 6.3132e-05, Final residual = 4.79284e-06, No Iterations 2
time step continuity errors : sum local = 2.09474e-06, global = -5.14943e-08, cumulative = 0.0187809
ExecutionTime = 5.6 s  ClockTime = 6 s

Time = 488

smoothSolver:  Solving for Ux, Initial residual = 1.19576e-05, Final residual = 3.76874e-06, No Iterations 1
smoothSolver:  Solving for Uy, Initial residual = 2.03699e-05, Final residual = 7.28179e-06, No Iterations 1
GAMG:  Solving for p, Initial residual = 7.84712e-05, Final residual = 6.8601e-06, No Iterations 2
time step continuity errors : sum local = 2.99826e-06, global = -5.06203e-08, cumulative = 0.0187808
ExecutionTime = 5.6 s  ClockTime = 6 s

Time = 489

smoothSolver:  Solving for Ux, Initial residual = 1.10007e-05, Final residual = 3.39918e-06, No Iterations 1
smoothSolver:  Solving for Uy, Initial residual = 2.2832e-05, Final residual = 7.38055e-06, No Iterations 1
GAMG:  Solving for p, Initial residual = 6.9472e-05, Final residual = 6.47811e-06, No Iterations 2
time step continuity errors : sum local = 2.83128e-06, global = -2.63287e-08, cumulative = 0.0187808
ExecutionTime = 5.61 s  ClockTime = 6 s

Time = 490

smoothSolver:  Solving for Ux, Initial residual = 1.09743e-05, Final residual = 3.44318e-06, No Iterations 1
smoothSolver:  Solving for Uy, Initial residual = 2.25423e-05, Final residual = 6.89362e-06, No Iterations 1
GAMG:  Solving for p, Initial residual = 6.25081e-05, Final residual = 6.2309e-06, No Iterations 2
time step continuity errors : sum local = 2.72314e-06, global = 2.99275e-08, cumulative = 0.0187808
ExecutionTime = 5.63 s  ClockTime = 6 s

Time = 491

smoothSolver:  Solving for Ux, Initial residual = 1.0793e-05, Final residual = 3.47568e-06, No Iterations 1
smoothSolver:  Solving for Uy, Initial residual = 2.49717e-05, Final residual = 7.96713e-06, No Iterations 1
GAMG:  Solving for p, Initial residual = 6.41418e-05, Final residual = 6.11257e-06, No Iterations 2
time step continuity errors : sum local = 2.67133e-06, global = 6.43404e-08, cumulative = 0.0187809
ExecutionTime = 5.65 s  ClockTime = 6 s

Time = 492

smoothSolver:  Solving for Ux, Initial residual = 1.03615e-05, Final residual = 3.34788e-06, No Iterations 1
smoothSolver:  Solving for Uy, Initial residual = 2.62561e-05, Final residual = 8.83447e-06, No Iterations 1
GAMG:  Solving for p, Initial residual = 7.17092e-05, Final residual = 6.26958e-06, No Iterations 2
time step continuity errors : sum local = 2.73985e-06, global = 7.49196e-08, cumulative = 0.018781
ExecutionTime = 5.65 s  ClockTime = 6 s

Time = 493

smoothSolver:  Solving for Ux, Initial residual = 1.02918e-05, Final residual = 3.21988e-06, No Iterations 1
smoothSolver:  Solving for Uy, Initial residual = 2.60198e-05, Final residual = 8.92343e-06, No Iterations 1
GAMG:  Solving for p, Initial residual = 7.30203e-05, Final residual = 5.97063e-06, No Iterations 2
time step continuity errors : sum local = 2.60917e-06, global = 8.56576e-08, cumulative = 0.0187811
ExecutionTime = 5.67 s  ClockTime = 6 s

Time = 494

smoothSolver:  Solving for Ux, Initial residual = 1.0597e-05, Final residual = 3.30696e-06, No Iterations 1
smoothSolver:  Solving for Uy, Initial residual = 2.51151e-05, Final residual = 8.39773e-06, No Iterations 1
GAMG:  Solving for p, Initial residual = 6.44093e-05, Final residual = 5.73099e-06, No Iterations 2
time step continuity errors : sum local = 2.50446e-06, global = 5.31727e-08, cumulative = 0.0187811
ExecutionTime = 5.68 s  ClockTime = 6 s

Time = 495

smoothSolver:  Solving for Ux, Initial residual = 1.08784e-05, Final residual = 3.44205e-06, No Iterations 1
smoothSolver:  Solving for Uy, Initial residual = 2.45834e-05, Final residual = 7.76719e-06, No Iterations 1
GAMG:  Solving for p, Initial residual = 6.00351e-05, Final residual = 5.90781e-06, No Iterations 2
time step continuity errors : sum local = 2.58181e-06, global = 1.26037e-09, cumulative = 0.0187811
ExecutionTime = 5.68 s  ClockTime = 6 s

Time = 496

smoothSolver:  Solving for Ux, Initial residual = 1.08341e-05, Final residual = 3.4857e-06, No Iterations 1
smoothSolver:  Solving for Uy, Initial residual = 2.60715e-05, Final residual = 8.30284e-06, No Iterations 1
GAMG:  Solving for p, Initial residual = 6.39401e-05, Final residual = 6.13176e-06, No Iterations 2
time step continuity errors : sum local = 2.67978e-06, global = -3.77995e-08, cumulative = 0.0187811
ExecutionTime = 5.68 s  ClockTime = 6 s

Time = 497

smoothSolver:  Solving for Ux, Initial residual = 1.05348e-05, Final residual = 3.35756e-06, No Iterations 1
smoothSolver:  Solving for Uy, Initial residual = 2.69746e-05, Final residual = 9.00029e-06, No Iterations 1
GAMG:  Solving for p, Initial residual = 7.05913e-05, Final residual = 6.04556e-06, No Iterations 2
time step continuity errors : sum local = 2.64219e-06, global = -6.32727e-08, cumulative = 0.018781
ExecutionTime = 5.7 s  ClockTime = 6 s

Time = 498

smoothSolver:  Solving for Ux, Initial residual = 1.03339e-05, Final residual = 3.21527e-06, No Iterations 1
smoothSolver:  Solving for Uy, Initial residual = 2.655e-05, Final residual = 8.94776e-06, No Iterations 1
GAMG:  Solving for p, Initial residual = 6.8715e-05, Final residual = 5.7707e-06, No Iterations 2
time step continuity errors : sum local = 2.52209e-06, global = -8.00908e-08, cumulative = 0.0187809
ExecutionTime = 5.7 s  ClockTime = 6 s

Time = 499

smoothSolver:  Solving for Ux, Initial residual = 1.02634e-05, Final residual = 3.19983e-06, No Iterations 1
smoothSolver:  Solving for Uy, Initial residual = 2.50547e-05, Final residual = 8.21448e-06, No Iterations 1
GAMG:  Solving for p, Initial residual = 6.05426e-05, Final residual = 5.53977e-06, No Iterations 2
time step continuity errors : sum local = 2.42113e-06, global = -5.18604e-08, cumulative = 0.0187809
ExecutionTime = 5.71 s  ClockTime = 6 s

Time = 500

smoothSolver:  Solving for Ux, Initial residual = 1.01456e-05, Final residual = 3.1938e-06, No Iterations 1
smoothSolver:  Solving for Uy, Initial residual = 2.36376e-05, Final residual = 7.36051e-06, No Iterations 1
GAMG:  Solving for p, Initial residual = 5.57551e-05, Final residual = 5.56223e-06, No Iterations 2
time step continuity errors : sum local = 2.43087e-06, global = -4.23829e-10, cumulative = 0.0187809
ExecutionTime = 5.77 s  ClockTime = 6 s

End

