/*---------------------------------------------------------------------------*\
| =========                 |                                                 |
| \\      /  F ield         | OpenFOAM: The Open Source CFD Toolbox           |
|  \\    /   O peration     | Version:  v1912                                 |
|   \\  /    A nd           | Website:  www.openfoam.com                      |
|    \\/     M anipulation  |                                                 |
\*---------------------------------------------------------------------------*/
Build  : _f3950763fe-20191219 OPENFOAM=1912
Arch   : "LSB;label=32;scalar=64"
Exec   : simpleFoam
Date   : Jun 22 2020
Time   : 22:17:42
Host   : DESKTOP-7S8DQ3L
PID    : 1834
I/O    : uncollated
Case   : /home/logankp/OpenFOAM/logankp-v1912/run/CFD/TurbulanceModels-flat-plate/k-epsilon
nProcs : 1
trapFpe: Floating point exception trapping enabled (FOAM_SIGFPE).
fileModificationChecking : Monitoring run-time modified files using timeStampMaster (fileModificationSkew 10)
allowSystemOperations : Allowing user-supplied system call operations

// * * * * * * * * * * * * * * * * * * * * * * * * * * * * * * * * * * * * * //
Create time

Create mesh for time = 0


SIMPLE: convergence criteria
    field p	 tolerance 1e-05
    field U	 tolerance 1e-06
    field "(k|epsilon|omega|nuTilda|f|v2)"	 tolerance 1e-06

Reading field p

Reading field U

Reading/calculating face flux field phi

Selecting incompressible transport model Newtonian
Selecting turbulence model type RAS
Selecting RAS turbulence model kEpsilon
RAS
{
    RASModel        kEpsilon;
    turbulence      on;
    printCoeffs     on;
    Cmu             0.09;
    C1              1.44;
    C2              1.92;
    C3              0;
    sigmak          1;
    sigmaEps        1.3;
}

No MRF models present

No finite volume options present

Starting time loop

forceCoeffs forceCoeffs:
    rho: rhoInf
    Freestream density (rhoInf) set to 1.2255
    Not including porosity effects

forces forces:
--> FOAM Warning : 
    From function Foam::labelHashSet Foam::polyBoundaryMesh::patchSet(const Foam::UList<Foam::wordRe>&, bool, bool) const
    in file meshes/polyMesh/polyBoundaryMesh/polyBoundaryMesh.C at line 891
    Cannot find any patch or group names matching wing
    rho: rhoInf
    Freestream density (rhoInf) set to 1
    Not including porosity effects

Time = 1

smoothSolver:  Solving for Ux, Initial residual = 1, Final residual = 0.0846277, No Iterations 10
smoothSolver:  Solving for Uy, Initial residual = 1, Final residual = 0.0900946, No Iterations 7
GAMG:  Solving for p, Initial residual = 1, Final residual = 0.0808252, No Iterations 2
time step continuity errors : sum local = 3.3549e-05, global = -3.25625e-06, cumulative = -3.25625e-06
smoothSolver:  Solving for epsilon, Initial residual = 0.243532, Final residual = 0.0187492, No Iterations 4
smoothSolver:  Solving for k, Initial residual = 1, Final residual = 0.0596423, No Iterations 2
ExecutionTime = 0.14 s  ClockTime = 0 s

forceCoeffs forceCoeffs execute:
    Coefficients
        Cd       : 0.00718634	(pressure: 0	viscous: 0.00718634)
        Cs       : 0	(pressure: 0	viscous: 0)
        Cl       : 9.74392e-05	(pressure: 9.60446e-05	viscous: 1.39464e-06)
        CmRoll       : -6.08995e-08	(pressure: -6.00279e-08	viscous: -8.7165e-10)
        CmPitch       : 3.79298e-06	(pressure: 3.80308e-06	viscous: -1.01012e-08)
        CmYaw       : 4.49146e-06	(pressure: 0	viscous: 4.49146e-06)
        Cd(f)    : 0.00359311
        Cd(r)    : 0.00359323
        Cs(f)    : 4.49146e-06
        Cs(r)    : -4.49146e-06
        Cl(f)    : 5.25126e-05
        Cl(r)    : 4.49266e-05
forces forces write:
    Sum of forces
        Total    : (0 0 0)
        Pressure : (0 0 0)
        Viscous  : (0 0 0)
    Sum of moments
        Total    : (0 0 0)
        Pressure : (0 0 0)
        Viscous  : (0 0 0)


Time = 2

smoothSolver:  Solving for Ux, Initial residual = 0.348312, Final residual = 0.0262005, No Iterations 4
smoothSolver:  Solving for Uy, Initial residual = 0.498993, Final residual = 0.0340914, No Iterations 4
GAMG:  Solving for p, Initial residual = 0.233416, Final residual = 0.0120371, No Iterations 4
time step continuity errors : sum local = 0.000155435, global = -3.98627e-05, cumulative = -4.31189e-05
smoothSolver:  Solving for epsilon, Initial residual = 0.0345309, Final residual = 0.00206897, No Iterations 2
smoothSolver:  Solving for k, Initial residual = 0.436641, Final residual = 0.0274735, No Iterations 2
ExecutionTime = 0.16 s  ClockTime = 0 s

forceCoeffs forceCoeffs execute:
    Coefficients
        Cd       : 0.00433474	(pressure: 0	viscous: 0.00433474)
        Cs       : 0	(pressure: 0	viscous: 0)
        Cl       : -0.00145851	(pressure: -0.00145242	viscous: -6.08583e-06)
        CmRoll       : 9.11568e-07	(pressure: 9.07764e-07	viscous: 3.80365e-09)
        CmPitch       : 0.000306168	(pressure: 0.000305894	viscous: 2.73787e-07)
        CmYaw       : 2.70921e-06	(pressure: 0	viscous: 2.70921e-06)
        Cd(f)    : 0.00216828
        Cd(r)    : 0.00216646
        Cs(f)    : 2.70921e-06
        Cs(r)    : -2.70921e-06
        Cl(f)    : -0.000423086
        Cl(r)    : -0.00103542
forces forces write:
    Sum of forces
        Total    : (0 0 0)
        Pressure : (0 0 0)
        Viscous  : (0 0 0)
    Sum of moments
        Total    : (0 0 0)
        Pressure : (0 0 0)
        Viscous  : (0 0 0)


Time = 3

smoothSolver:  Solving for Ux, Initial residual = 0.0381245, Final residual = 0.0034165, No Iterations 5
smoothSolver:  Solving for Uy, Initial residual = 0.404056, Final residual = 0.0325816, No Iterations 4
GAMG:  Solving for p, Initial residual = 0.0464155, Final residual = 0.00439478, No Iterations 3
time step continuity errors : sum local = 0.000128434, global = 2.47547e-05, cumulative = -1.83642e-05
smoothSolver:  Solving for epsilon, Initial residual = 0.0235193, Final residual = 0.00122567, No Iterations 2
smoothSolver:  Solving for k, Initial residual = 0.237524, Final residual = 0.0171307, No Iterations 2
ExecutionTime = 0.19 s  ClockTime = 0 s

forceCoeffs forceCoeffs execute:
    Coefficients
        Cd       : 0.00447428	(pressure: 0	viscous: 0.00447428)
        Cs       : 0	(pressure: 0	viscous: 0)
        Cl       : -0.00105894	(pressure: -0.00105828	viscous: -6.5126e-07)
        CmRoll       : 6.61835e-07	(pressure: 6.61428e-07	viscous: 4.07038e-10)
        CmPitch       : 0.000202598	(pressure: 0.000202615	viscous: -1.68655e-08)
        CmYaw       : 2.79643e-06	(pressure: 0	viscous: 2.79643e-06)
        Cd(f)    : 0.0022378
        Cd(r)    : 0.00223648
        Cs(f)    : 2.79643e-06
        Cs(r)    : -2.79643e-06
        Cl(f)    : -0.00032687
        Cl(r)    : -0.000732066
forces forces write:
    Sum of forces
        Total    : (0 0 0)
        Pressure : (0 0 0)
        Viscous  : (0 0 0)
    Sum of moments
        Total    : (0 0 0)
        Pressure : (0 0 0)
        Viscous  : (0 0 0)


Time = 4

smoothSolver:  Solving for Ux, Initial residual = 0.0175752, Final residual = 0.00173986, No Iterations 5
smoothSolver:  Solving for Uy, Initial residual = 0.242309, Final residual = 0.0201874, No Iterations 4
GAMG:  Solving for p, Initial residual = 0.0534285, Final residual = 0.00276754, No Iterations 3
time step continuity errors : sum local = 8.40821e-05, global = -7.14304e-06, cumulative = -2.55073e-05
smoothSolver:  Solving for epsilon, Initial residual = 0.0170726, Final residual = 0.00161448, No Iterations 1
smoothSolver:  Solving for k, Initial residual = 0.167175, Final residual = 0.0133797, No Iterations 2
ExecutionTime = 0.2 s  ClockTime = 0 s

forceCoeffs forceCoeffs execute:
    Coefficients
        Cd       : 0.00341496	(pressure: 0	viscous: 0.00341496)
        Cs       : 0	(pressure: 0	viscous: 0)
        Cl       : -0.000792141	(pressure: -0.000790759	viscous: -1.38237e-06)
        CmRoll       : 4.95088e-07	(pressure: 4.94224e-07	viscous: 8.63981e-10)
        CmPitch       : 0.000114052	(pressure: 0.000114068	viscous: -1.56822e-08)
        CmYaw       : 2.13435e-06	(pressure: 0	viscous: 2.13435e-06)
        Cd(f)    : 0.00170798
        Cd(r)    : 0.00170699
        Cs(f)    : 2.13435e-06
        Cs(r)    : -2.13435e-06
        Cl(f)    : -0.000282018
        Cl(r)    : -0.000510123
forces forces write:
    Sum of forces
        Total    : (0 0 0)
        Pressure : (0 0 0)
        Viscous  : (0 0 0)
    Sum of moments
        Total    : (0 0 0)
        Pressure : (0 0 0)
        Viscous  : (0 0 0)


Time = 5

smoothSolver:  Solving for Ux, Initial residual = 0.0109121, Final residual = 0.0009392, No Iterations 7
smoothSolver:  Solving for Uy, Initial residual = 0.165174, Final residual = 0.0152867, No Iterations 4
GAMG:  Solving for p, Initial residual = 0.0446027, Final residual = 0.00388111, No Iterations 3
time step continuity errors : sum local = 9.90802e-05, global = 2.87072e-05, cumulative = 3.19995e-06
smoothSolver:  Solving for epsilon, Initial residual = 0.0101764, Final residual = 0.000850759, No Iterations 2
smoothSolver:  Solving for k, Initial residual = 0.124421, Final residual = 0.0107997, No Iterations 2
ExecutionTime = 0.22 s  ClockTime = 0 s

forceCoeffs forceCoeffs execute:
    Coefficients
        Cd       : 0.00346846	(pressure: 0	viscous: 0.00346846)
        Cs       : 0	(pressure: 0	viscous: 0)
        Cl       : -0.000297141	(pressure: -0.000297378	viscous: 2.36904e-07)
        CmRoll       : 1.85713e-07	(pressure: 1.85861e-07	viscous: -1.48065e-10)
        CmPitch       : 5.65964e-06	(pressure: 5.71877e-06	viscous: -5.9129e-08)
        CmYaw       : 2.16779e-06	(pressure: 0	viscous: 2.16779e-06)
        Cd(f)    : 0.00173441
        Cd(r)    : 0.00173404
        Cs(f)    : 2.16779e-06
        Cs(r)    : -2.16779e-06
        Cl(f)    : -0.000142911
        Cl(r)    : -0.00015423
forces forces write:
    Sum of forces
        Total    : (0 0 0)
        Pressure : (0 0 0)
        Viscous  : (0 0 0)
    Sum of moments
        Total    : (0 0 0)
        Pressure : (0 0 0)
        Viscous  : (0 0 0)


Time = 6

smoothSolver:  Solving for Ux, Initial residual = 0.00828069, Final residual = 0.000666041, No Iterations 8
smoothSolver:  Solving for Uy, Initial residual = 0.105615, Final residual = 0.00962294, No Iterations 4
GAMG:  Solving for p, Initial residual = 0.0478925, Final residual = 0.004399, No Iterations 3
time step continuity errors : sum local = 8.96957e-05, global = -1.0816e-05, cumulative = -7.61608e-06
smoothSolver:  Solving for epsilon, Initial residual = 0.00634587, Final residual = 0.000464016, No Iterations 3
smoothSolver:  Solving for k, Initial residual = 0.0937452, Final residual = 0.0089889, No Iterations 2
ExecutionTime = 0.25 s  ClockTime = 0 s

forceCoeffs forceCoeffs execute:
    Coefficients
        Cd       : 0.00345015	(pressure: 0	viscous: 0.00345015)
        Cs       : 0	(pressure: 0	viscous: 0)
        Cl       : -3.85389e-05	(pressure: -3.89686e-05	viscous: 4.29749e-07)
        CmRoll       : 2.40868e-08	(pressure: 2.43554e-08	viscous: -2.68593e-10)
        CmPitch       : -5.05633e-05	(pressure: -5.05155e-05	viscous: -4.7844e-08)
        CmYaw       : 2.15634e-06	(pressure: 0	viscous: 2.15634e-06)
        Cd(f)    : 0.0017251
        Cd(r)    : 0.00172505
        Cs(f)    : 2.15634e-06
        Cs(r)    : -2.15634e-06
        Cl(f)    : -6.98328e-05
        Cl(r)    : 3.12939e-05
forces forces write:
    Sum of forces
        Total    : (0 0 0)
        Pressure : (0 0 0)
        Viscous  : (0 0 0)
    Sum of moments
        Total    : (0 0 0)
        Pressure : (0 0 0)
        Viscous  : (0 0 0)


Time = 7

smoothSolver:  Solving for Ux, Initial residual = 0.00808108, Final residual = 0.000643209, No Iterations 8
smoothSolver:  Solving for Uy, Initial residual = 0.0796768, Final residual = 0.00684863, No Iterations 4
GAMG:  Solving for p, Initial residual = 0.0525361, Final residual = 0.00322945, No Iterations 3
time step continuity errors : sum local = 5.02471e-05, global = 1.34159e-05, cumulative = 5.79979e-06
smoothSolver:  Solving for epsilon, Initial residual = 0.00472353, Final residual = 0.00042962, No Iterations 3
smoothSolver:  Solving for k, Initial residual = 0.0743596, Final residual = 0.00471944, No Iterations 3
ExecutionTime = 0.26 s  ClockTime = 0 s

forceCoeffs forceCoeffs execute:
    Coefficients
        Cd       : 0.00353721	(pressure: 0	viscous: 0.00353721)
        Cs       : 0	(pressure: 0	viscous: 0)
        Cl       : 3.06762e-05	(pressure: 2.98644e-05	viscous: 8.11758e-07)
        CmRoll       : -1.91726e-08	(pressure: -1.86653e-08	viscous: -5.07349e-10)
        CmPitch       : -5.60462e-05	(pressure: -5.59993e-05	viscous: -4.68896e-08)
        CmYaw       : 2.21076e-06	(pressure: 0	viscous: 2.21076e-06)
        Cd(f)    : 0.00176859
        Cd(r)    : 0.00176862
        Cs(f)    : 2.21076e-06
        Cs(r)    : -2.21076e-06
        Cl(f)    : -4.07081e-05
        Cl(r)    : 7.13843e-05
forces forces write:
    Sum of forces
        Total    : (0 0 0)
        Pressure : (0 0 0)
        Viscous  : (0 0 0)
    Sum of moments
        Total    : (0 0 0)
        Pressure : (0 0 0)
        Viscous  : (0 0 0)


Time = 8

smoothSolver:  Solving for Ux, Initial residual = 0.00658322, Final residual = 0.000611918, No Iterations 8
smoothSolver:  Solving for Uy, Initial residual = 0.0684971, Final residual = 0.00563614, No Iterations 4
GAMG:  Solving for p, Initial residual = 0.0499971, Final residual = 0.00428472, No Iterations 2
time step continuity errors : sum local = 6.17774e-05, global = 2.91809e-06, cumulative = 8.71788e-06
smoothSolver:  Solving for epsilon, Initial residual = 0.00336039, Final residual = 0.000246885, No Iterations 4
smoothSolver:  Solving for k, Initial residual = 0.0607395, Final residual = 0.00418291, No Iterations 3
ExecutionTime = 0.28 s  ClockTime = 0 s

forceCoeffs forceCoeffs execute:
    Coefficients
        Cd       : 0.00356487	(pressure: 0	viscous: 0.00356487)
        Cs       : 0	(pressure: 0	viscous: 0)
        Cl       : 3.66872e-05	(pressure: 3.58065e-05	viscous: 8.80661e-07)
        CmRoll       : -2.29295e-08	(pressure: -2.23791e-08	viscous: -5.50413e-10)
        CmPitch       : -5.86924e-05	(pressure: -5.86507e-05	viscous: -4.1696e-08)
        CmYaw       : 2.22804e-06	(pressure: 0	viscous: 2.22804e-06)
        Cd(f)    : 0.00178241
        Cd(r)    : 0.00178246
        Cs(f)    : 2.22804e-06
        Cs(r)    : -2.22804e-06
        Cl(f)    : -4.03488e-05
        Cl(r)    : 7.7036e-05
forces forces write:
    Sum of forces
        Total    : (0 0 0)
        Pressure : (0 0 0)
        Viscous  : (0 0 0)
    Sum of moments
        Total    : (0 0 0)
        Pressure : (0 0 0)
        Viscous  : (0 0 0)


Time = 9

smoothSolver:  Solving for Ux, Initial residual = 0.00565, Final residual = 0.00043722, No Iterations 9
smoothSolver:  Solving for Uy, Initial residual = 0.0591926, Final residual = 0.00542174, No Iterations 4
GAMG:  Solving for p, Initial residual = 0.0470719, Final residual = 0.00261353, No Iterations 3
time step continuity errors : sum local = 3.53371e-05, global = -7.4712e-06, cumulative = 1.24667e-06
smoothSolver:  Solving for epsilon, Initial residual = 0.00263671, Final residual = 0.000200199, No Iterations 4
smoothSolver:  Solving for k, Initial residual = 0.0508127, Final residual = 0.00377052, No Iterations 3
ExecutionTime = 0.3 s  ClockTime = 0 s

forceCoeffs forceCoeffs execute:
    Coefficients
        Cd       : 0.00355762	(pressure: 0	viscous: 0.00355762)
        Cs       : 0	(pressure: 0	viscous: 0)
        Cl       : -3.29887e-05	(pressure: -3.39289e-05	viscous: 9.40255e-07)
        CmRoll       : 2.06179e-08	(pressure: 2.12056e-08	viscous: -5.87659e-10)
        CmPitch       : -4.99461e-05	(pressure: -4.9908e-05	viscous: -3.81345e-08)
        CmYaw       : 2.22351e-06	(pressure: 0	viscous: 2.22351e-06)
        Cd(f)    : 0.00177883
        Cd(r)    : 0.00177879
        Cs(f)    : 2.22351e-06
        Cs(r)    : -2.22351e-06
        Cl(f)    : -6.64404e-05
        Cl(r)    : 3.34517e-05
forces forces write:
    Sum of forces
        Total    : (0 0 0)
        Pressure : (0 0 0)
        Viscous  : (0 0 0)
    Sum of moments
        Total    : (0 0 0)
        Pressure : (0 0 0)
        Viscous  : (0 0 0)


Time = 10

smoothSolver:  Solving for Ux, Initial residual = 0.00519207, Final residual = 0.000407221, No Iterations 9
smoothSolver:  Solving for Uy, Initial residual = 0.0525008, Final residual = 0.00411928, No Iterations 5
GAMG:  Solving for p, Initial residual = 0.0397083, Final residual = 0.00268581, No Iterations 3
time step continuity errors : sum local = 3.81592e-05, global = 3.2315e-06, cumulative = 4.47817e-06
smoothSolver:  Solving for epsilon, Initial residual = 0.00218681, Final residual = 0.00016584, No Iterations 4
smoothSolver:  Solving for k, Initial residual = 0.0434932, Final residual = 0.00345044, No Iterations 3
ExecutionTime = 0.31 s  ClockTime = 0 s

forceCoeffs forceCoeffs execute:
    Coefficients
        Cd       : 0.00353117	(pressure: 0	viscous: 0.00353117)
        Cs       : 0	(pressure: 0	viscous: 0)
        Cl       : -7.48706e-05	(pressure: -7.58298e-05	viscous: 9.59168e-07)
        CmRoll       : 4.67942e-08	(pressure: 4.73936e-08	viscous: -5.9948e-10)
        CmPitch       : -5.07168e-05	(pressure: -5.06799e-05	viscous: -3.68506e-08)
        CmYaw       : 2.20698e-06	(pressure: 0	viscous: 2.20698e-06)
        Cd(f)    : 0.00176563
        Cd(r)    : 0.00176554
        Cs(f)    : 2.20698e-06
        Cs(r)    : -2.20698e-06
        Cl(f)    : -8.81521e-05
        Cl(r)    : 1.32815e-05
forces forces write:
    Sum of forces
        Total    : (0 0 0)
        Pressure : (0 0 0)
        Viscous  : (0 0 0)
    Sum of moments
        Total    : (0 0 0)
        Pressure : (0 0 0)
        Viscous  : (0 0 0)


Time = 11

smoothSolver:  Solving for Ux, Initial residual = 0.00486428, Final residual = 0.00037986, No Iterations 9
smoothSolver:  Solving for Uy, Initial residual = 0.045873, Final residual = 0.0036317, No Iterations 5
GAMG:  Solving for p, Initial residual = 0.0322803, Final residual = 0.00170756, No Iterations 3
time step continuity errors : sum local = 2.52647e-05, global = -4.42241e-06, cumulative = 5.57586e-08
smoothSolver:  Solving for epsilon, Initial residual = 0.00185131, Final residual = 0.000139385, No Iterations 4
smoothSolver:  Solving for k, Initial residual = 0.0379063, Final residual = 0.00319625, No Iterations 3
ExecutionTime = 0.34 s  ClockTime = 0 s

forceCoeffs forceCoeffs execute:
    Coefficients
        Cd       : 0.00350363	(pressure: 0	viscous: 0.00350363)
        Cs       : 0	(pressure: 0	viscous: 0)
        Cl       : -6.97862e-05	(pressure: -7.07644e-05	viscous: 9.78164e-07)
        CmRoll       : 4.36164e-08	(pressure: 4.42278e-08	viscous: -6.11352e-10)
        CmPitch       : -6.13635e-05	(pressure: -6.13271e-05	viscous: -3.64164e-08)
        CmYaw       : 2.18977e-06	(pressure: 0	viscous: 2.18977e-06)
        Cd(f)    : 0.00175186
        Cd(r)    : 0.00175177
        Cs(f)    : 2.18977e-06
        Cs(r)    : -2.18977e-06
        Cl(f)    : -9.62566e-05
        Cl(r)    : 2.64704e-05
forces forces write:
    Sum of forces
        Total    : (0 0 0)
        Pressure : (0 0 0)
        Viscous  : (0 0 0)
    Sum of moments
        Total    : (0 0 0)
        Pressure : (0 0 0)
        Viscous  : (0 0 0)


Time = 12

smoothSolver:  Solving for Ux, Initial residual = 0.00446147, Final residual = 0.000354558, No Iterations 9
smoothSolver:  Solving for Uy, Initial residual = 0.0383269, Final residual = 0.0031249, No Iterations 5
GAMG:  Solving for p, Initial residual = 0.028267, Final residual = 0.00156108, No Iterations 3
time step continuity errors : sum local = 2.28159e-05, global = 2.96041e-06, cumulative = 3.01617e-06
smoothSolver:  Solving for epsilon, Initial residual = 0.00156602, Final residual = 0.000119669, No Iterations 4
smoothSolver:  Solving for k, Initial residual = 0.0334783, Final residual = 0.00298778, No Iterations 3
ExecutionTime = 0.36 s  ClockTime = 0 s

forceCoeffs forceCoeffs execute:
    Coefficients
        Cd       : 0.00347763	(pressure: 0	viscous: 0.00347763)
        Cs       : 0	(pressure: 0	viscous: 0)
        Cl       : -5.84408e-05	(pressure: -5.94379e-05	viscous: 9.97058e-07)
        CmRoll       : 3.65255e-08	(pressure: 3.71487e-08	viscous: -6.23161e-10)
        CmPitch       : -7.38659e-05	(pressure: -7.3829e-05	viscous: -3.6905e-08)
        CmYaw       : 2.17352e-06	(pressure: 0	viscous: 2.17352e-06)
        Cd(f)    : 0.00173885
        Cd(r)    : 0.00173878
        Cs(f)    : 2.17352e-06
        Cs(r)    : -2.17352e-06
        Cl(f)    : -0.000103086
        Cl(r)    : 4.46455e-05
forces forces write:
    Sum of forces
        Total    : (0 0 0)
        Pressure : (0 0 0)
        Viscous  : (0 0 0)
    Sum of moments
        Total    : (0 0 0)
        Pressure : (0 0 0)
        Viscous  : (0 0 0)


Time = 13

smoothSolver:  Solving for Ux, Initial residual = 0.00411447, Final residual = 0.000331062, No Iterations 9
smoothSolver:  Solving for Uy, Initial residual = 0.0316735, Final residual = 0.00268707, No Iterations 5
GAMG:  Solving for p, Initial residual = 0.0247775, Final residual = 0.00117174, No Iterations 3
time step continuity errors : sum local = 1.69084e-05, global = -2.41172e-06, cumulative = 6.04453e-07
smoothSolver:  Solving for epsilon, Initial residual = 0.00134297, Final residual = 0.000103871, No Iterations 4
smoothSolver:  Solving for k, Initial residual = 0.0299458, Final residual = 0.00281511, No Iterations 3
ExecutionTime = 0.37 s  ClockTime = 0 s

forceCoeffs forceCoeffs execute:
    Coefficients
        Cd       : 0.00345353	(pressure: 0	viscous: 0.00345353)
        Cs       : 0	(pressure: 0	viscous: 0)
        Cl       : -3.97305e-05	(pressure: -4.07443e-05	viscous: 1.01381e-06)
        CmRoll       : 2.48315e-08	(pressure: 2.54652e-08	viscous: -6.33629e-10)
        CmPitch       : -8.86243e-05	(pressure: -8.85868e-05	viscous: -3.75669e-08)
        CmYaw       : 2.15846e-06	(pressure: 0	viscous: 2.15846e-06)
        Cd(f)    : 0.00172679
        Cd(r)    : 0.00172674
        Cs(f)    : 2.15846e-06
        Cs(r)    : -2.15846e-06
        Cl(f)    : -0.00010849
        Cl(r)    : 6.87591e-05
forces forces write:
    Sum of forces
        Total    : (0 0 0)
        Pressure : (0 0 0)
        Viscous  : (0 0 0)
    Sum of moments
        Total    : (0 0 0)
        Pressure : (0 0 0)
        Viscous  : (0 0 0)


Time = 14

smoothSolver:  Solving for Ux, Initial residual = 0.00378762, Final residual = 0.000309294, No Iterations 9
smoothSolver:  Solving for Uy, Initial residual = 0.0270689, Final residual = 0.00240274, No Iterations 5
GAMG:  Solving for p, Initial residual = 0.0220285, Final residual = 0.00119794, No Iterations 3
time step continuity errors : sum local = 1.69155e-05, global = 2.33336e-06, cumulative = 2.93781e-06
smoothSolver:  Solving for epsilon, Initial residual = 0.00118429, Final residual = 9.13316e-05, No Iterations 4
smoothSolver:  Solving for k, Initial residual = 0.0271307, Final residual = 0.00266909, No Iterations 3
ExecutionTime = 0.39 s  ClockTime = 0 s

forceCoeffs forceCoeffs execute:
    Coefficients
        Cd       : 0.00343042	(pressure: 0	viscous: 0.00343042)
        Cs       : 0	(pressure: 0	viscous: 0)
        Cl       : -3.50743e-05	(pressure: -3.61023e-05	viscous: 1.02797e-06)
        CmRoll       : 2.19214e-08	(pressure: 2.25639e-08	viscous: -6.42483e-10)
        CmPitch       : -9.92086e-05	(pressure: -9.91702e-05	viscous: -3.83735e-08)
        CmYaw       : 2.14402e-06	(pressure: 0	viscous: 2.14402e-06)
        Cd(f)    : 0.00171523
        Cd(r)    : 0.00171519
        Cs(f)    : 2.14402e-06
        Cs(r)    : -2.14402e-06
        Cl(f)    : -0.000116746
        Cl(r)    : 8.16714e-05
forces forces write:
    Sum of forces
        Total    : (0 0 0)
        Pressure : (0 0 0)
        Viscous  : (0 0 0)
    Sum of moments
        Total    : (0 0 0)
        Pressure : (0 0 0)
        Viscous  : (0 0 0)


Time = 15

smoothSolver:  Solving for Ux, Initial residual = 0.00352955, Final residual = 0.000289217, No Iterations 9
smoothSolver:  Solving for Uy, Initial residual = 0.0248521, Final residual = 0.00220923, No Iterations 5
GAMG:  Solving for p, Initial residual = 0.0194589, Final residual = 0.0010521, No Iterations 3
time step continuity errors : sum local = 1.48488e-05, global = -2.19907e-06, cumulative = 7.3874e-07
smoothSolver:  Solving for epsilon, Initial residual = 0.00105822, Final residual = 8.13215e-05, No Iterations 4
smoothSolver:  Solving for k, Initial residual = 0.0248988, Final residual = 0.00186828, No Iterations 4
ExecutionTime = 0.41 s  ClockTime = 0 s

forceCoeffs forceCoeffs execute:
    Coefficients
        Cd       : 0.00340833	(pressure: 0	viscous: 0.00340833)
        Cs       : 0	(pressure: 0	viscous: 0)
        Cl       : -3.03553e-05	(pressure: -3.13951e-05	viscous: 1.03974e-06)
        CmRoll       : 1.89721e-08	(pressure: 1.96219e-08	viscous: -6.49838e-10)
        CmPitch       : -0.000110126	(pressure: -0.000110086	viscous: -3.92375e-08)
        CmYaw       : 2.13021e-06	(pressure: 0	viscous: 2.13021e-06)
        Cd(f)    : 0.00170418
        Cd(r)    : 0.00170415
        Cs(f)    : 2.13021e-06
        Cs(r)    : -2.13021e-06
        Cl(f)    : -0.000125303
        Cl(r)    : 9.4948e-05
forces forces write:
    Sum of forces
        Total    : (0 0 0)
        Pressure : (0 0 0)
        Viscous  : (0 0 0)
    Sum of moments
        Total    : (0 0 0)
        Pressure : (0 0 0)
        Viscous  : (0 0 0)


Time = 16

smoothSolver:  Solving for Ux, Initial residual = 0.00329793, Final residual = 0.000270964, No Iterations 9
smoothSolver:  Solving for Uy, Initial residual = 0.023712, Final residual = 0.00205077, No Iterations 5
GAMG:  Solving for p, Initial residual = 0.0172533, Final residual = 0.00123447, No Iterations 3
time step continuity errors : sum local = 1.73993e-05, global = 1.82207e-06, cumulative = 2.56081e-06
smoothSolver:  Solving for epsilon, Initial residual = 0.000967183, Final residual = 7.36883e-05, No Iterations 4
smoothSolver:  Solving for k, Initial residual = 0.0231693, Final residual = 0.00178798, No Iterations 4
ExecutionTime = 0.42 s  ClockTime = 0 s

forceCoeffs forceCoeffs execute:
    Coefficients
        Cd       : 0.0033871	(pressure: 0	viscous: 0.0033871)
        Cs       : 0	(pressure: 0	viscous: 0)
        Cl       : -3.44273e-05	(pressure: -3.5477e-05	viscous: 1.04975e-06)
        CmRoll       : 2.1517e-08	(pressure: 2.21731e-08	viscous: -6.56093e-10)
        CmPitch       : -0.000118837	(pressure: -0.000118797	viscous: -4.01976e-08)
        CmYaw       : 2.11693e-06	(pressure: 0	viscous: 2.11693e-06)
        Cd(f)    : 0.00169357
        Cd(r)    : 0.00169353
        Cs(f)    : 2.11693e-06
        Cs(r)    : -2.11693e-06
        Cl(f)    : -0.000136051
        Cl(r)    : 0.000101624
forces forces write:
    Sum of forces
        Total    : (0 0 0)
        Pressure : (0 0 0)
        Viscous  : (0 0 0)
    Sum of moments
        Total    : (0 0 0)
        Pressure : (0 0 0)
        Viscous  : (0 0 0)


Time = 17

smoothSolver:  Solving for Ux, Initial residual = 0.00310772, Final residual = 0.000253982, No Iterations 9
smoothSolver:  Solving for Uy, Initial residual = 0.0231919, Final residual = 0.00189723, No Iterations 5
GAMG:  Solving for p, Initial residual = 0.0148939, Final residual = 0.00104351, No Iterations 3
time step continuity errors : sum local = 1.48992e-05, global = -2.13626e-06, cumulative = 4.24551e-07
smoothSolver:  Solving for epsilon, Initial residual = 0.00088629, Final residual = 6.69387e-05, No Iterations 4
smoothSolver:  Solving for k, Initial residual = 0.0218418, Final residual = 0.00171575, No Iterations 4
ExecutionTime = 0.44 s  ClockTime = 0 s

forceCoeffs forceCoeffs execute:
    Coefficients
        Cd       : 0.00336727	(pressure: 0	viscous: 0.00336727)
        Cs       : 0	(pressure: 0	viscous: 0)
        Cl       : -3.72587e-05	(pressure: -3.83175e-05	viscous: 1.05881e-06)
        CmRoll       : 2.32867e-08	(pressure: 2.39484e-08	viscous: -6.61756e-10)
        CmPitch       : -0.000127737	(pressure: -0.000127695	viscous: -4.12593e-08)
        CmYaw       : 2.10454e-06	(pressure: 0	viscous: 2.10454e-06)
        Cd(f)    : 0.00168366
        Cd(r)    : 0.00168361
        Cs(f)    : 2.10454e-06
        Cs(r)    : -2.10454e-06
        Cl(f)    : -0.000146366
        Cl(r)    : 0.000109107
forces forces write:
    Sum of forces
        Total    : (0 0 0)
        Pressure : (0 0 0)
        Viscous  : (0 0 0)
    Sum of moments
        Total    : (0 0 0)
        Pressure : (0 0 0)
        Viscous  : (0 0 0)


Time = 18

smoothSolver:  Solving for Ux, Initial residual = 0.00292057, Final residual = 0.000238146, No Iterations 9
smoothSolver:  Solving for Uy, Initial residual = 0.0228092, Final residual = 0.00175522, No Iterations 5
GAMG:  Solving for p, Initial residual = 0.0128932, Final residual = 0.00114655, No Iterations 3
time step continuity errors : sum local = 1.65354e-05, global = 1.64708e-06, cumulative = 2.07163e-06
smoothSolver:  Solving for epsilon, Initial residual = 0.000826556, Final residual = 6.1385e-05, No Iterations 4
smoothSolver:  Solving for k, Initial residual = 0.0208462, Final residual = 0.00165026, No Iterations 4
ExecutionTime = 0.45 s  ClockTime = 0 s

forceCoeffs forceCoeffs execute:
    Coefficients
        Cd       : 0.00334852	(pressure: 0	viscous: 0.00334852)
        Cs       : 0	(pressure: 0	viscous: 0)
        Cl       : -4.48415e-05	(pressure: -4.59085e-05	viscous: 1.06704e-06)
        CmRoll       : 2.80259e-08	(pressure: 2.86928e-08	viscous: -6.66897e-10)
        CmPitch       : -0.000135807	(pressure: -0.000135764	viscous: -4.23989e-08)
        CmYaw       : 2.09283e-06	(pressure: 0	viscous: 2.09283e-06)
        Cd(f)    : 0.00167429
        Cd(r)    : 0.00167423
        Cs(f)    : 2.09283e-06
        Cs(r)    : -2.09283e-06
        Cl(f)    : -0.000158227
        Cl(r)    : 0.000113386
forces forces write:
    Sum of forces
        Total    : (0 0 0)
        Pressure : (0 0 0)
        Viscous  : (0 0 0)
    Sum of moments
        Total    : (0 0 0)
        Pressure : (0 0 0)
        Viscous  : (0 0 0)


Time = 19

smoothSolver:  Solving for Ux, Initial residual = 0.00275592, Final residual = 0.000223322, No Iterations 9
smoothSolver:  Solving for Uy, Initial residual = 0.0224566, Final residual = 0.00216256, No Iterations 4
GAMG:  Solving for p, Initial residual = 0.0111696, Final residual = 0.00085162, No Iterations 3
time step continuity errors : sum local = 1.25055e-05, global = -1.8518e-06, cumulative = 2.19828e-07
smoothSolver:  Solving for epsilon, Initial residual = 0.000779211, Final residual = 5.66023e-05, No Iterations 4
smoothSolver:  Solving for k, Initial residual = 0.0201095, Final residual = 0.00158998, No Iterations 4
ExecutionTime = 0.49 s  ClockTime = 0 s

forceCoeffs forceCoeffs execute:
    Coefficients
        Cd       : 0.00333073	(pressure: 0	viscous: 0.00333073)
        Cs       : 0	(pressure: 0	viscous: 0)
        Cl       : -5.81149e-05	(pressure: -5.91875e-05	viscous: 1.07254e-06)
        CmRoll       : 3.63218e-08	(pressure: 3.69922e-08	viscous: -6.7034e-10)
        CmPitch       : -0.000141203	(pressure: -0.00014116	viscous: -4.29975e-08)
        CmYaw       : 2.08171e-06	(pressure: 0	viscous: 2.08171e-06)
        Cd(f)    : 0.0016654
        Cd(r)    : 0.00166533
        Cs(f)    : 2.08171e-06
        Cs(r)    : -2.08171e-06
        Cl(f)    : -0.00017026
        Cl(r)    : 0.000112145
forces forces write:
    Sum of forces
        Total    : (0 0 0)
        Pressure : (0 0 0)
        Viscous  : (0 0 0)
    Sum of moments
        Total    : (0 0 0)
        Pressure : (0 0 0)
        Viscous  : (0 0 0)


Time = 20

smoothSolver:  Solving for Ux, Initial residual = 0.00259103, Final residual = 0.000209386, No Iterations 9
smoothSolver:  Solving for Uy, Initial residual = 0.0223838, Final residual = 0.0021511, No Iterations 4
GAMG:  Solving for p, Initial residual = 0.00966953, Final residual = 0.000941357, No Iterations 3
time step continuity errors : sum local = 1.40461e-05, global = 1.44577e-06, cumulative = 1.6656e-06
smoothSolver:  Solving for epsilon, Initial residual = 0.000740462, Final residual = 5.2569e-05, No Iterations 4
smoothSolver:  Solving for k, Initial residual = 0.0195731, Final residual = 0.00153396, No Iterations 4
ExecutionTime = 0.5 s  ClockTime = 0 s

forceCoeffs forceCoeffs execute:
    Coefficients
        Cd       : 0.00331376	(pressure: 0	viscous: 0.00331376)
        Cs       : 0	(pressure: 0	viscous: 0)
        Cl       : -7.29768e-05	(pressure: -7.40564e-05	viscous: 1.07963e-06)
        CmRoll       : 4.56105e-08	(pressure: 4.62853e-08	viscous: -6.74771e-10)
        CmPitch       : -0.000146695	(pressure: -0.000146651	viscous: -4.42772e-08)
        CmYaw       : 2.0711e-06	(pressure: 0	viscous: 2.0711e-06)
        Cd(f)    : 0.00165692
        Cd(r)    : 0.00165683
        Cs(f)    : 2.0711e-06
        Cs(r)    : -2.0711e-06
        Cl(f)    : -0.000183184
        Cl(r)    : 0.000110207
forces forces write:
    Sum of forces
        Total    : (0 0 0)
        Pressure : (0 0 0)
        Viscous  : (0 0 0)
    Sum of moments
        Total    : (0 0 0)
        Pressure : (0 0 0)
        Viscous  : (0 0 0)


Time = 21

smoothSolver:  Solving for Ux, Initial residual = 0.00244641, Final residual = 0.000196359, No Iterations 9
smoothSolver:  Solving for Uy, Initial residual = 0.0221784, Final residual = 0.00209016, No Iterations 4
GAMG:  Solving for p, Initial residual = 0.0084383, Final residual = 0.000756308, No Iterations 3
time step continuity errors : sum local = 1.15292e-05, global = -1.68704e-06, cumulative = -2.14454e-08
smoothSolver:  Solving for epsilon, Initial residual = 0.000707172, Final residual = 4.92301e-05, No Iterations 4
smoothSolver:  Solving for k, Initial residual = 0.0191841, Final residual = 0.00148134, No Iterations 4
ExecutionTime = 0.52 s  ClockTime = 0 s

forceCoeffs forceCoeffs execute:
    Coefficients
        Cd       : 0.00329752	(pressure: 0	viscous: 0.00329752)
        Cs       : 0	(pressure: 0	viscous: 0)
        Cl       : -8.26348e-05	(pressure: -8.37216e-05	viscous: 1.08677e-06)
        CmRoll       : 5.16468e-08	(pressure: 5.2326e-08	viscous: -6.79234e-10)
        CmPitch       : -0.000153693	(pressure: -0.000153647	viscous: -4.58213e-08)
        CmYaw       : 2.06095e-06	(pressure: 0	viscous: 2.06095e-06)
        Cd(f)    : 0.00164881
        Cd(r)    : 0.00164871
        Cs(f)    : 2.06095e-06
        Cs(r)    : -2.06095e-06
        Cl(f)    : -0.00019501
        Cl(r)    : 0.000112376
forces forces write:
    Sum of forces
        Total    : (0 0 0)
        Pressure : (0 0 0)
        Viscous  : (0 0 0)
    Sum of moments
        Total    : (0 0 0)
        Pressure : (0 0 0)
        Viscous  : (0 0 0)


Time = 22

smoothSolver:  Solving for Ux, Initial residual = 0.00230411, Final residual = 0.000184167, No Iterations 9
smoothSolver:  Solving for Uy, Initial residual = 0.0217418, Final residual = 0.00199843, No Iterations 4
GAMG:  Solving for p, Initial residual = 0.00744516, Final residual = 0.000522784, No Iterations 4
time step continuity errors : sum local = 8.104e-06, global = -1.81978e-06, cumulative = -1.84122e-06
smoothSolver:  Solving for epsilon, Initial residual = 0.000678704, Final residual = 6.72162e-05, No Iterations 3
smoothSolver:  Solving for k, Initial residual = 0.0189126, Final residual = 0.00143436, No Iterations 4
ExecutionTime = 0.54 s  ClockTime = 0 s

forceCoeffs forceCoeffs execute:
    Coefficients
        Cd       : 0.00328202	(pressure: 0	viscous: 0.00328202)
        Cs       : 0	(pressure: 0	viscous: 0)
        Cl       : -9.53155e-05	(pressure: -9.64084e-05	viscous: 1.09292e-06)
        CmRoll       : 5.95722e-08	(pressure: 6.02553e-08	viscous: -6.83073e-10)
        CmPitch       : -0.000160536	(pressure: -0.000160489	viscous: -4.72192e-08)
        CmYaw       : 2.05126e-06	(pressure: 0	viscous: 2.05126e-06)
        Cd(f)    : 0.00164107
        Cd(r)    : 0.00164095
        Cs(f)    : 2.05126e-06
        Cs(r)    : -2.05126e-06
        Cl(f)    : -0.000208194
        Cl(r)    : 0.000112878
forces forces write:
    Sum of forces
        Total    : (0 0 0)
        Pressure : (0 0 0)
        Viscous  : (0 0 0)
    Sum of moments
        Total    : (0 0 0)
        Pressure : (0 0 0)
        Viscous  : (0 0 0)


Time = 23

smoothSolver:  Solving for Ux, Initial residual = 0.00217852, Final residual = 0.000172831, No Iterations 9
smoothSolver:  Solving for Uy, Initial residual = 0.021441, Final residual = 0.00189463, No Iterations 4
GAMG:  Solving for p, Initial residual = 0.00644773, Final residual = 0.000512676, No Iterations 4
time step continuity errors : sum local = 8.13417e-06, global = -1.72432e-06, cumulative = -3.56555e-06
smoothSolver:  Solving for epsilon, Initial residual = 0.000665237, Final residual = 6.54053e-05, No Iterations 3
smoothSolver:  Solving for k, Initial residual = 0.0187111, Final residual = 0.0013879, No Iterations 4
ExecutionTime = 0.57 s  ClockTime = 0 s

forceCoeffs forceCoeffs execute:
    Coefficients
        Cd       : 0.00326709	(pressure: 0	viscous: 0.00326709)
        Cs       : 0	(pressure: 0	viscous: 0)
        Cl       : -0.000108125	(pressure: -0.000109223	viscous: 1.09811e-06)
        CmRoll       : 6.75779e-08	(pressure: 6.82642e-08	viscous: -6.86316e-10)
        CmPitch       : -0.000165692	(pressure: -0.000165643	viscous: -4.84092e-08)
        CmYaw       : 2.04193e-06	(pressure: 0	viscous: 2.04193e-06)
        Cd(f)    : 0.00163361
        Cd(r)    : 0.00163348
        Cs(f)    : 2.04193e-06
        Cs(r)    : -2.04193e-06
        Cl(f)    : -0.000219754
        Cl(r)    : 0.000111629
forces forces write:
    Sum of forces
        Total    : (0 0 0)
        Pressure : (0 0 0)
        Viscous  : (0 0 0)
    Sum of moments
        Total    : (0 0 0)
        Pressure : (0 0 0)
        Viscous  : (0 0 0)


Time = 24

smoothSolver:  Solving for Ux, Initial residual = 0.00205769, Final residual = 0.00016216, No Iterations 9
smoothSolver:  Solving for Uy, Initial residual = 0.0209142, Final residual = 0.00179925, No Iterations 4
GAMG:  Solving for p, Initial residual = 0.00574276, Final residual = 0.000495978, No Iterations 4
time step continuity errors : sum local = 8.04749e-06, global = -1.71673e-06, cumulative = -5.28228e-06
smoothSolver:  Solving for epsilon, Initial residual = 0.00064618, Final residual = 6.3058e-05, No Iterations 3
smoothSolver:  Solving for k, Initial residual = 0.0185562, Final residual = 0.00181299, No Iterations 3
ExecutionTime = 0.58 s  ClockTime = 0 s

forceCoeffs forceCoeffs execute:
    Coefficients
        Cd       : 0.0032529	(pressure: 0	viscous: 0.0032529)
        Cs       : 0	(pressure: 0	viscous: 0)
        Cl       : -0.000122764	(pressure: -0.000123867	viscous: 1.1033e-06)
        CmRoll       : 7.67276e-08	(pressure: 7.74171e-08	viscous: -6.89561e-10)
        CmPitch       : -0.000170704	(pressure: -0.000170654	viscous: -4.98293e-08)
        CmYaw       : 2.03306e-06	(pressure: 0	viscous: 2.03306e-06)
        Cd(f)    : 0.00162652
        Cd(r)    : 0.00162637
        Cs(f)    : 2.03306e-06
        Cs(r)    : -2.03306e-06
        Cl(f)    : -0.000232086
        Cl(r)    : 0.000109322
forces forces write:
    Sum of forces
        Total    : (0 0 0)
        Pressure : (0 0 0)
        Viscous  : (0 0 0)
    Sum of moments
        Total    : (0 0 0)
        Pressure : (0 0 0)
        Viscous  : (0 0 0)


Time = 25

smoothSolver:  Solving for Ux, Initial residual = 0.00194041, Final residual = 0.000152051, No Iterations 9
smoothSolver:  Solving for Uy, Initial residual = 0.0204252, Final residual = 0.00170693, No Iterations 4
GAMG:  Solving for p, Initial residual = 0.00510657, Final residual = 0.00046716, No Iterations 4
time step continuity errors : sum local = 7.75752e-06, global = -1.68154e-06, cumulative = -6.96383e-06
smoothSolver:  Solving for epsilon, Initial residual = 0.000618203, Final residual = 5.96614e-05, No Iterations 3
smoothSolver:  Solving for k, Initial residual = 0.0184117, Final residual = 0.0017583, No Iterations 3
ExecutionTime = 0.59 s  ClockTime = 0 s

forceCoeffs forceCoeffs execute:
    Coefficients
        Cd       : 0.00323982	(pressure: 0	viscous: 0.00323982)
        Cs       : 0	(pressure: 0	viscous: 0)
        Cl       : -0.000139702	(pressure: -0.00014081	viscous: 1.10821e-06)
        CmRoll       : 8.73139e-08	(pressure: 8.80065e-08	viscous: -6.9263e-10)
        CmPitch       : -0.000174769	(pressure: -0.000174718	viscous: -5.12956e-08)
        CmYaw       : 2.02488e-06	(pressure: 0	viscous: 2.02488e-06)
        Cd(f)    : 0.00161999
        Cd(r)    : 0.00161982
        Cs(f)    : 2.02488e-06
        Cs(r)    : -2.02488e-06
        Cl(f)    : -0.000244621
        Cl(r)    : 0.000104918
forces forces write:
    Sum of forces
        Total    : (0 0 0)
        Pressure : (0 0 0)
        Viscous  : (0 0 0)
    Sum of moments
        Total    : (0 0 0)
        Pressure : (0 0 0)
        Viscous  : (0 0 0)


Time = 26

smoothSolver:  Solving for Ux, Initial residual = 0.00183115, Final residual = 0.000142485, No Iterations 9
smoothSolver:  Solving for Uy, Initial residual = 0.0200655, Final residual = 0.00162622, No Iterations 4
GAMG:  Solving for p, Initial residual = 0.00453225, Final residual = 0.000437008, No Iterations 4
time step continuity errors : sum local = 7.43528e-06, global = -1.63226e-06, cumulative = -8.59609e-06
smoothSolver:  Solving for epsilon, Initial residual = 0.000601953, Final residual = 5.697e-05, No Iterations 3
smoothSolver:  Solving for k, Initial residual = 0.0182903, Final residual = 0.00170665, No Iterations 3
ExecutionTime = 0.63 s  ClockTime = 0 s

forceCoeffs forceCoeffs execute:
    Coefficients
        Cd       : 0.00322738	(pressure: 0	viscous: 0.00322738)
        Cs       : 0	(pressure: 0	viscous: 0)
        Cl       : -0.000158801	(pressure: -0.000159913	viscous: 1.11256e-06)
        CmRoll       : 9.92504e-08	(pressure: 9.99458e-08	viscous: -6.95351e-10)
        CmPitch       : -0.000177743	(pressure: -0.000177691	viscous: -5.26833e-08)
        CmYaw       : 2.01711e-06	(pressure: 0	viscous: 2.01711e-06)
        Cd(f)    : 0.00161379
        Cd(r)    : 0.00161359
        Cs(f)    : 2.01711e-06
        Cs(r)    : -2.01711e-06
        Cl(f)    : -0.000257144
        Cl(r)    : 9.83429e-05
forces forces write:
    Sum of forces
        Total    : (0 0 0)
        Pressure : (0 0 0)
        Viscous  : (0 0 0)
    Sum of moments
        Total    : (0 0 0)
        Pressure : (0 0 0)
        Viscous  : (0 0 0)


Time = 27

smoothSolver:  Solving for Ux, Initial residual = 0.00172775, Final residual = 0.000133449, No Iterations 9
smoothSolver:  Solving for Uy, Initial residual = 0.0197471, Final residual = 0.00155492, No Iterations 4
GAMG:  Solving for p, Initial residual = 0.00401823, Final residual = 0.000205351, No Iterations 6
time step continuity errors : sum local = 3.58258e-06, global = -7.21913e-07, cumulative = -9.318e-06
smoothSolver:  Solving for epsilon, Initial residual = 0.000585107, Final residual = 5.45021e-05, No Iterations 3
smoothSolver:  Solving for k, Initial residual = 0.0181837, Final residual = 0.0016574, No Iterations 3
ExecutionTime = 0.64 s  ClockTime = 0 s

forceCoeffs forceCoeffs execute:
    Coefficients
        Cd       : 0.0032156	(pressure: 0	viscous: 0.0032156)
        Cs       : 0	(pressure: 0	viscous: 0)
        Cl       : -0.000183656	(pressure: -0.000184773	viscous: 1.11659e-06)
        CmRoll       : 1.14785e-07	(pressure: 1.15483e-07	viscous: -6.9787e-10)
        CmPitch       : -0.000179208	(pressure: -0.000179154	viscous: -5.40234e-08)
        CmYaw       : 2.00975e-06	(pressure: 0	viscous: 2.00975e-06)
        Cd(f)    : 0.00160791
        Cd(r)    : 0.00160768
        Cs(f)    : 2.00975e-06
        Cs(r)    : -2.00975e-06
        Cl(f)    : -0.000271036
        Cl(r)    : 8.738e-05
forces forces write:
    Sum of forces
        Total    : (0 0 0)
        Pressure : (0 0 0)
        Viscous  : (0 0 0)
    Sum of moments
        Total    : (0 0 0)
        Pressure : (0 0 0)
        Viscous  : (0 0 0)


Time = 28

smoothSolver:  Solving for Ux, Initial residual = 0.00163389, Final residual = 0.000124881, No Iterations 9
smoothSolver:  Solving for Uy, Initial residual = 0.019776, Final residual = 0.0014886, No Iterations 4
GAMG:  Solving for p, Initial residual = 0.00347459, Final residual = 0.000285109, No Iterations 4
time step continuity errors : sum local = 5.1274e-06, global = -1.17756e-06, cumulative = -1.04956e-05
smoothSolver:  Solving for epsilon, Initial residual = 0.000570095, Final residual = 5.23385e-05, No Iterations 3
smoothSolver:  Solving for k, Initial residual = 0.0180868, Final residual = 0.00161034, No Iterations 3
ExecutionTime = 0.67 s  ClockTime = 0 s

forceCoeffs forceCoeffs execute:
    Coefficients
        Cd       : 0.0032044	(pressure: 0	viscous: 0.0032044)
        Cs       : 0	(pressure: 0	viscous: 0)
        Cl       : -0.00020046	(pressure: -0.00020158	viscous: 1.12032e-06)
        CmRoll       : 1.25287e-07	(pressure: 1.25988e-07	viscous: -7.00202e-10)
        CmPitch       : -0.000181209	(pressure: -0.000181154	viscous: -5.53044e-08)
        CmYaw       : 2.00275e-06	(pressure: 0	viscous: 2.00275e-06)
        Cd(f)    : 0.00160232
        Cd(r)    : 0.00160207
        Cs(f)    : 2.00275e-06
        Cs(r)    : -2.00275e-06
        Cl(f)    : -0.000281439
        Cl(r)    : 8.09791e-05
forces forces write:
    Sum of forces
        Total    : (0 0 0)
        Pressure : (0 0 0)
        Viscous  : (0 0 0)
    Sum of moments
        Total    : (0 0 0)
        Pressure : (0 0 0)
        Viscous  : (0 0 0)


Time = 29

smoothSolver:  Solving for Ux, Initial residual = 0.00153412, Final residual = 0.000153022, No Iterations 8
smoothSolver:  Solving for Uy, Initial residual = 0.0190836, Final residual = 0.00143207, No Iterations 4
GAMG:  Solving for p, Initial residual = 0.00316391, Final residual = 0.000170593, No Iterations 6
time step continuity errors : sum local = 3.12754e-06, global = -6.25428e-07, cumulative = -1.1121e-05
smoothSolver:  Solving for epsilon, Initial residual = 0.000553854, Final residual = 5.02208e-05, No Iterations 3
smoothSolver:  Solving for k, Initial residual = 0.0179976, Final residual = 0.00156593, No Iterations 3
ExecutionTime = 0.68 s  ClockTime = 0 s

forceCoeffs forceCoeffs execute:
    Coefficients
        Cd       : 0.00319413	(pressure: 0	viscous: 0.00319413)
        Cs       : 0	(pressure: 0	viscous: 0)
        Cl       : -0.000219712	(pressure: -0.000220836	viscous: 1.1242e-06)
        CmRoll       : 1.3732e-07	(pressure: 1.38022e-07	viscous: -7.02624e-10)
        CmPitch       : -0.000184235	(pressure: -0.000184179	viscous: -5.68471e-08)
        CmYaw       : 1.99633e-06	(pressure: 0	viscous: 1.99633e-06)
        Cd(f)    : 0.0015972
        Cd(r)    : 0.00159693
        Cs(f)    : 1.99633e-06
        Cs(r)    : -1.99633e-06
        Cl(f)    : -0.000294091
        Cl(r)    : 7.43796e-05
forces forces write:
    Sum of forces
        Total    : (0 0 0)
        Pressure : (0 0 0)
        Viscous  : (0 0 0)
    Sum of moments
        Total    : (0 0 0)
        Pressure : (0 0 0)
        Viscous  : (0 0 0)


Time = 30

smoothSolver:  Solving for Ux, Initial residual = 0.00144838, Final residual = 0.000143367, No Iterations 8
smoothSolver:  Solving for Uy, Initial residual = 0.0186522, Final residual = 0.0018469, No Iterations 3
GAMG:  Solving for p, Initial residual = 0.00288776, Final residual = 0.000238337, No Iterations 4
time step continuity errors : sum local = 4.47893e-06, global = -1.12541e-06, cumulative = -1.22464e-05
smoothSolver:  Solving for epsilon, Initial residual = 0.000539023, Final residual = 4.8192e-05, No Iterations 3
smoothSolver:  Solving for k, Initial residual = 0.0179138, Final residual = 0.00152329, No Iterations 3
ExecutionTime = 0.7 s  ClockTime = 0 s

forceCoeffs forceCoeffs execute:
    Coefficients
        Cd       : 0.00318434	(pressure: 0	viscous: 0.00318434)
        Cs       : 0	(pressure: 0	viscous: 0)
        Cl       : -0.000248097	(pressure: -0.000249223	viscous: 1.12603e-06)
        CmRoll       : 1.5506e-07	(pressure: 1.55764e-07	viscous: -7.0377e-10)
        CmPitch       : -0.000179363	(pressure: -0.000179305	viscous: -5.74615e-08)
        CmYaw       : 1.99021e-06	(pressure: 0	viscous: 1.99021e-06)
        Cd(f)    : 0.00159232
        Cd(r)    : 0.00159201
        Cs(f)    : 1.99021e-06
        Cs(r)    : -1.99021e-06
        Cl(f)    : -0.000303411
        Cl(r)    : 5.53145e-05
forces forces write:
    Sum of forces
        Total    : (0 0 0)
        Pressure : (0 0 0)
        Viscous  : (0 0 0)
    Sum of moments
        Total    : (0 0 0)
        Pressure : (0 0 0)
        Viscous  : (0 0 0)


Time = 31

smoothSolver:  Solving for Ux, Initial residual = 0.0013605, Final residual = 0.000134116, No Iterations 8
smoothSolver:  Solving for Uy, Initial residual = 0.0183931, Final residual = 0.00140145, No Iterations 4
GAMG:  Solving for p, Initial residual = 0.00268071, Final residual = 0.000157108, No Iterations 6
time step continuity errors : sum local = 3.01861e-06, global = -6.78431e-07, cumulative = -1.29248e-05
smoothSolver:  Solving for epsilon, Initial residual = 0.000526612, Final residual = 4.62881e-05, No Iterations 3
smoothSolver:  Solving for k, Initial residual = 0.0178334, Final residual = 0.00148229, No Iterations 3
ExecutionTime = 0.72 s  ClockTime = 0 s

forceCoeffs forceCoeffs execute:
    Coefficients
        Cd       : 0.00317502	(pressure: 0	viscous: 0.00317502)
        Cs       : 0	(pressure: 0	viscous: 0)
        Cl       : -0.000274805	(pressure: -0.000275936	viscous: 1.13121e-06)
        CmRoll       : 1.71753e-07	(pressure: 1.7246e-07	viscous: -7.07007e-10)
        CmPitch       : -0.000178477	(pressure: -0.000178417	viscous: -5.97479e-08)
        CmYaw       : 1.98439e-06	(pressure: 0	viscous: 1.98439e-06)
        Cd(f)    : 0.00158768
        Cd(r)    : 0.00158734
        Cs(f)    : 1.98439e-06
        Cs(r)    : -1.98439e-06
        Cl(f)    : -0.000315879
        Cl(r)    : 4.10744e-05
forces forces write:
    Sum of forces
        Total    : (0 0 0)
        Pressure : (0 0 0)
        Viscous  : (0 0 0)
    Sum of moments
        Total    : (0 0 0)
        Pressure : (0 0 0)
        Viscous  : (0 0 0)


Time = 32

smoothSolver:  Solving for Ux, Initial residual = 0.00128661, Final residual = 0.000125359, No Iterations 8
smoothSolver:  Solving for Uy, Initial residual = 0.0182776, Final residual = 0.00175752, No Iterations 3
GAMG:  Solving for p, Initial residual = 0.00235388, Final residual = 0.000220244, No Iterations 4
time step continuity errors : sum local = 4.35962e-06, global = -1.24704e-06, cumulative = -1.41719e-05
smoothSolver:  Solving for epsilon, Initial residual = 0.000515675, Final residual = 4.45024e-05, No Iterations 3
smoothSolver:  Solving for k, Initial residual = 0.017755, Final residual = 0.00144279, No Iterations 3
ExecutionTime = 0.75 s  ClockTime = 0 s

forceCoeffs forceCoeffs execute:
    Coefficients
        Cd       : 0.00316612	(pressure: 0	viscous: 0.00316612)
        Cs       : 0	(pressure: 0	viscous: 0)
        Cl       : -0.000306983	(pressure: -0.000308117	viscous: 1.13316e-06)
        CmRoll       : 1.91865e-07	(pressure: 1.92573e-07	viscous: -7.08222e-10)
        CmPitch       : -0.000171154	(pressure: -0.000171094	viscous: -6.049e-08)
        CmYaw       : 1.97883e-06	(pressure: 0	viscous: 1.97883e-06)
        Cd(f)    : 0.00158325
        Cd(r)    : 0.00158287
        Cs(f)    : 1.97883e-06
        Cs(r)    : -1.97883e-06
        Cl(f)    : -0.000324646
        Cl(r)    : 1.76627e-05
forces forces write:
    Sum of forces
        Total    : (0 0 0)
        Pressure : (0 0 0)
        Viscous  : (0 0 0)
    Sum of moments
        Total    : (0 0 0)
        Pressure : (0 0 0)
        Viscous  : (0 0 0)


Time = 33

smoothSolver:  Solving for Ux, Initial residual = 0.00120734, Final residual = 0.000116972, No Iterations 8
smoothSolver:  Solving for Uy, Initial residual = 0.0180568, Final residual = 0.00179984, No Iterations 3
GAMG:  Solving for p, Initial residual = 0.00211041, Final residual = 0.000133494, No Iterations 6
time step continuity errors : sum local = 2.70789e-06, global = -7.15286e-07, cumulative = -1.48872e-05
smoothSolver:  Solving for epsilon, Initial residual = 0.000505737, Final residual = 4.28624e-05, No Iterations 3
smoothSolver:  Solving for k, Initial residual = 0.0176789, Final residual = 0.00140481, No Iterations 3
ExecutionTime = 0.76 s  ClockTime = 0 s

forceCoeffs forceCoeffs execute:
    Coefficients
        Cd       : 0.00315768	(pressure: 0	viscous: 0.00315768)
        Cs       : 0	(pressure: 0	viscous: 0)
        Cl       : -0.000348269	(pressure: -0.000349405	viscous: 1.13647e-06)
        CmRoll       : 2.17668e-07	(pressure: 2.18378e-07	viscous: -7.10295e-10)
        CmPitch       : -0.000161006	(pressure: -0.000160944	viscous: -6.19825e-08)
        CmYaw       : 1.97355e-06	(pressure: 0	viscous: 1.97355e-06)
        Cd(f)    : 0.00157906
        Cd(r)    : 0.00157862
        Cs(f)    : 1.97355e-06
        Cs(r)    : -1.97355e-06
        Cl(f)    : -0.000335141
        Cl(r)    : -1.31282e-05
forces forces write:
    Sum of forces
        Total    : (0 0 0)
        Pressure : (0 0 0)
        Viscous  : (0 0 0)
    Sum of moments
        Total    : (0 0 0)
        Pressure : (0 0 0)
        Viscous  : (0 0 0)


Time = 34

smoothSolver:  Solving for Ux, Initial residual = 0.00113952, Final residual = 0.000108974, No Iterations 8
smoothSolver:  Solving for Uy, Initial residual = 0.0183314, Final residual = 0.00179382, No Iterations 3
GAMG:  Solving for p, Initial residual = 0.00186453, Final residual = 0.000103428, No Iterations 6
time step continuity errors : sum local = 2.16846e-06, global = -5.88991e-07, cumulative = -1.54761e-05
smoothSolver:  Solving for epsilon, Initial residual = 0.000496367, Final residual = 4.13654e-05, No Iterations 3
smoothSolver:  Solving for k, Initial residual = 0.0176049, Final residual = 0.00136831, No Iterations 3
ExecutionTime = 0.78 s  ClockTime = 1 s

forceCoeffs forceCoeffs execute:
    Coefficients
        Cd       : 0.00314965	(pressure: 0	viscous: 0.00314965)
        Cs       : 0	(pressure: 0	viscous: 0)
        Cl       : -0.000382069	(pressure: -0.000383209	viscous: 1.13996e-06)
        CmRoll       : 2.38793e-07	(pressure: 2.39506e-07	viscous: -7.12475e-10)
        CmPitch       : -0.000153247	(pressure: -0.000153184	viscous: -6.35857e-08)
        CmYaw       : 1.96853e-06	(pressure: 0	viscous: 1.96853e-06)
        Cd(f)    : 0.00157506
        Cd(r)    : 0.00157458
        Cs(f)    : 1.96853e-06
        Cs(r)    : -1.96853e-06
        Cl(f)    : -0.000344282
        Cl(r)    : -3.77873e-05
forces forces write:
    Sum of forces
        Total    : (0 0 0)
        Pressure : (0 0 0)
        Viscous  : (0 0 0)
    Sum of moments
        Total    : (0 0 0)
        Pressure : (0 0 0)
        Viscous  : (0 0 0)


Time = 35

smoothSolver:  Solving for Ux, Initial residual = 0.00106895, Final residual = 0.000101383, No Iterations 8
smoothSolver:  Solving for Uy, Initial residual = 0.0180895, Final residual = 0.00175254, No Iterations 3
GAMG:  Solving for p, Initial residual = 0.00168242, Final residual = 9.63677e-05, No Iterations 6
time step continuity errors : sum local = 2.07526e-06, global = -5.80508e-07, cumulative = -1.60567e-05
smoothSolver:  Solving for epsilon, Initial residual = 0.000487691, Final residual = 3.9946e-05, No Iterations 3
smoothSolver:  Solving for k, Initial residual = 0.0175325, Final residual = 0.0013332, No Iterations 3
ExecutionTime = 0.81 s  ClockTime = 1 s

forceCoeffs forceCoeffs execute:
    Coefficients
        Cd       : 0.00314201	(pressure: 0	viscous: 0.00314201)
        Cs       : 0	(pressure: 0	viscous: 0)
        Cl       : -0.000416259	(pressure: -0.000417402	viscous: 1.14323e-06)
        CmRoll       : 2.60162e-07	(pressure: 2.60876e-07	viscous: -7.14517e-10)
        CmPitch       : -0.000144534	(pressure: -0.000144469	viscous: -6.51517e-08)
        CmYaw       : 1.96375e-06	(pressure: 0	viscous: 1.96375e-06)
        Cd(f)    : 0.00157126
        Cd(r)    : 0.00157074
        Cs(f)    : 1.96375e-06
        Cs(r)    : -1.96375e-06
        Cl(f)    : -0.000352663
        Cl(r)    : -6.35951e-05
forces forces write:
    Sum of forces
        Total    : (0 0 0)
        Pressure : (0 0 0)
        Viscous  : (0 0 0)
    Sum of moments
        Total    : (0 0 0)
        Pressure : (0 0 0)
        Viscous  : (0 0 0)


Time = 36

smoothSolver:  Solving for Ux, Initial residual = 0.00100172, Final residual = 9.41567e-05, No Iterations 8
smoothSolver:  Solving for Uy, Initial residual = 0.0177877, Final residual = 0.00169601, No Iterations 3
GAMG:  Solving for p, Initial residual = 0.00152877, Final residual = 9.47601e-05, No Iterations 6
time step continuity errors : sum local = 2.09505e-06, global = -6.05448e-07, cumulative = -1.66621e-05
smoothSolver:  Solving for epsilon, Initial residual = 0.000479833, Final residual = 3.85956e-05, No Iterations 3
smoothSolver:  Solving for k, Initial residual = 0.0174612, Final residual = 0.00129937, No Iterations 3
ExecutionTime = 0.82 s  ClockTime = 1 s

forceCoeffs forceCoeffs execute:
    Coefficients
        Cd       : 0.00313474	(pressure: 0	viscous: 0.00313474)
        Cs       : 0	(pressure: 0	viscous: 0)
        Cl       : -0.00045299	(pressure: -0.000454136	viscous: 1.14625e-06)
        CmRoll       : 2.83119e-07	(pressure: 2.83835e-07	viscous: -7.16409e-10)
        CmPitch       : -0.000133932	(pressure: -0.000133865	viscous: -6.66466e-08)
        CmYaw       : 1.95921e-06	(pressure: 0	viscous: 1.95921e-06)
        Cd(f)    : 0.00156765
        Cd(r)    : 0.00156709
        Cs(f)    : 1.95921e-06
        Cs(r)    : -1.95921e-06
        Cl(f)    : -0.000360427
        Cl(r)    : -9.25632e-05
forces forces write:
    Sum of forces
        Total    : (0 0 0)
        Pressure : (0 0 0)
        Viscous  : (0 0 0)
    Sum of moments
        Total    : (0 0 0)
        Pressure : (0 0 0)
        Viscous  : (0 0 0)


Time = 37

smoothSolver:  Solving for Ux, Initial residual = 0.000938024, Final residual = 8.72864e-05, No Iterations 8
smoothSolver:  Solving for Uy, Initial residual = 0.0175489, Final residual = 0.00163579, No Iterations 3
GAMG:  Solving for p, Initial residual = 0.00138883, Final residual = 9.40976e-05, No Iterations 6
time step continuity errors : sum local = 2.13728e-06, global = -6.28747e-07, cumulative = -1.72908e-05
smoothSolver:  Solving for epsilon, Initial residual = 0.000472546, Final residual = 3.73077e-05, No Iterations 3
smoothSolver:  Solving for k, Initial residual = 0.0173896, Final residual = 0.00126671, No Iterations 3
ExecutionTime = 0.84 s  ClockTime = 1 s

forceCoeffs forceCoeffs execute:
    Coefficients
        Cd       : 0.00312783	(pressure: 0	viscous: 0.00312783)
        Cs       : 0	(pressure: 0	viscous: 0)
        Cl       : -0.00049167	(pressure: -0.000492819	viscous: 1.14916e-06)
        CmRoll       : 3.07294e-07	(pressure: 3.08012e-07	viscous: -7.18223e-10)
        CmPitch       : -0.000121672	(pressure: -0.000121604	viscous: -6.81182e-08)
        CmYaw       : 1.9549e-06	(pressure: 0	viscous: 1.9549e-06)
        Cd(f)    : 0.00156422
        Cd(r)    : 0.00156361
        Cs(f)    : 1.9549e-06
        Cs(r)    : -1.9549e-06
        Cl(f)    : -0.000367507
        Cl(r)    : -0.000124163
forces forces write:
    Sum of forces
        Total    : (0 0 0)
        Pressure : (0 0 0)
        Viscous  : (0 0 0)
    Sum of moments
        Total    : (0 0 0)
        Pressure : (0 0 0)
        Viscous  : (0 0 0)


Time = 38

smoothSolver:  Solving for Ux, Initial residual = 0.000877192, Final residual = 8.07731e-05, No Iterations 8
smoothSolver:  Solving for Uy, Initial residual = 0.017309, Final residual = 0.0015744, No Iterations 3
GAMG:  Solving for p, Initial residual = 0.00126507, Final residual = 9.29971e-05, No Iterations 6
time step continuity errors : sum local = 2.17041e-06, global = -6.43246e-07, cumulative = -1.79341e-05
smoothSolver:  Solving for epsilon, Initial residual = 0.000465714, Final residual = 3.60924e-05, No Iterations 3
smoothSolver:  Solving for k, Initial residual = 0.0173185, Final residual = 0.00123526, No Iterations 3
ExecutionTime = 0.86 s  ClockTime = 1 s

forceCoeffs forceCoeffs execute:
    Coefficients
        Cd       : 0.00312126	(pressure: 0	viscous: 0.00312126)
        Cs       : 0	(pressure: 0	viscous: 0)
        Cl       : -0.000531805	(pressure: -0.000532957	viscous: 1.15199e-06)
        CmRoll       : 3.32378e-07	(pressure: 3.33098e-07	viscous: -7.19991e-10)
        CmPitch       : -0.000107927	(pressure: -0.000107857	viscous: -6.95896e-08)
        CmYaw       : 1.95079e-06	(pressure: 0	viscous: 1.95079e-06)
        Cd(f)    : 0.00156096
        Cd(r)    : 0.0015603
        Cs(f)    : 1.95079e-06
        Cs(r)    : -1.95079e-06
        Cl(f)    : -0.000373829
        Cl(r)    : -0.000157976
forces forces write:
    Sum of forces
        Total    : (0 0 0)
        Pressure : (0 0 0)
        Viscous  : (0 0 0)
    Sum of moments
        Total    : (0 0 0)
        Pressure : (0 0 0)
        Viscous  : (0 0 0)


Time = 39

smoothSolver:  Solving for Ux, Initial residual = 0.000819038, Final residual = 7.4606e-05, No Iterations 8
smoothSolver:  Solving for Uy, Initial residual = 0.0170358, Final residual = 0.00151179, No Iterations 3
GAMG:  Solving for p, Initial residual = 0.00115505, Final residual = 9.11773e-05, No Iterations 6
time step continuity errors : sum local = 2.18604e-06, global = -6.49132e-07, cumulative = -1.85832e-05
smoothSolver:  Solving for epsilon, Initial residual = 0.000459291, Final residual = 3.49448e-05, No Iterations 3
smoothSolver:  Solving for k, Initial residual = 0.0172483, Final residual = 0.00172023, No Iterations 2
ExecutionTime = 0.89 s  ClockTime = 1 s

forceCoeffs forceCoeffs execute:
    Coefficients
        Cd       : 0.00311501	(pressure: 0	viscous: 0.00311501)
        Cs       : 0	(pressure: 0	viscous: 0)
        Cl       : -0.000573127	(pressure: -0.000574282	viscous: 1.15475e-06)
        CmRoll       : 3.58204e-07	(pressure: 3.58926e-07	viscous: -7.2172e-10)
        CmPitch       : -9.27798e-05	(pressure: -9.27087e-05	viscous: -7.10629e-08)
        CmYaw       : 1.94688e-06	(pressure: 0	viscous: 1.94688e-06)
        Cd(f)    : 0.00155786
        Cd(r)    : 0.00155715
        Cs(f)    : 1.94688e-06
        Cs(r)    : -1.94688e-06
        Cl(f)    : -0.000379343
        Cl(r)    : -0.000193784
forces forces write:
    Sum of forces
        Total    : (0 0 0)
        Pressure : (0 0 0)
        Viscous  : (0 0 0)
    Sum of moments
        Total    : (0 0 0)
        Pressure : (0 0 0)
        Viscous  : (0 0 0)


Time = 40

smoothSolver:  Solving for Ux, Initial residual = 0.000757523, Final residual = 6.83777e-05, No Iterations 8
smoothSolver:  Solving for Uy, Initial residual = 0.0167142, Final residual = 0.00145139, No Iterations 3
GAMG:  Solving for p, Initial residual = 0.00104883, Final residual = 8.80495e-05, No Iterations 6
time step continuity errors : sum local = 2.16779e-06, global = -6.42496e-07, cumulative = -1.92257e-05
smoothSolver:  Solving for epsilon, Initial residual = 0.000441509, Final residual = 3.26126e-05, No Iterations 3
smoothSolver:  Solving for k, Initial residual = 0.017159, Final residual = 0.00168086, No Iterations 2
ExecutionTime = 0.91 s  ClockTime = 1 s

forceCoeffs forceCoeffs execute:
    Coefficients
        Cd       : 0.00310949	(pressure: 0	viscous: 0.00310949)
        Cs       : 0	(pressure: 0	viscous: 0)
        Cl       : -0.000615331	(pressure: -0.000616488	viscous: 1.15752e-06)
        CmRoll       : 3.84582e-07	(pressure: 3.85305e-07	viscous: -7.23453e-10)
        CmPitch       : -7.62833e-05	(pressure: -7.62106e-05	viscous: -7.26046e-08)
        CmYaw       : 1.94343e-06	(pressure: 0	viscous: 1.94343e-06)
        Cd(f)    : 0.00155513
        Cd(r)    : 0.00155436
        Cs(f)    : 1.94343e-06
        Cs(r)    : -1.94343e-06
        Cl(f)    : -0.000383949
        Cl(r)    : -0.000231382
forces forces write:
    Sum of forces
        Total    : (0 0 0)
        Pressure : (0 0 0)
        Viscous  : (0 0 0)
    Sum of moments
        Total    : (0 0 0)
        Pressure : (0 0 0)
        Viscous  : (0 0 0)


Time = 41

smoothSolver:  Solving for Ux, Initial residual = 0.000700212, Final residual = 6.25101e-05, No Iterations 8
smoothSolver:  Solving for Uy, Initial residual = 0.0163515, Final residual = 0.00138985, No Iterations 3
GAMG:  Solving for p, Initial residual = 0.000955889, Final residual = 8.46279e-05, No Iterations 6
time step continuity errors : sum local = 2.13851e-06, global = -6.30749e-07, cumulative = -1.98565e-05
smoothSolver:  Solving for epsilon, Initial residual = 0.000436206, Final residual = 3.1203e-05, No Iterations 3
smoothSolver:  Solving for k, Initial residual = 0.0170743, Final residual = 0.00164499, No Iterations 2
ExecutionTime = 0.92 s  ClockTime = 1 s

forceCoeffs forceCoeffs execute:
    Coefficients
        Cd       : 0.0031042	(pressure: 0	viscous: 0.0031042)
        Cs       : 0	(pressure: 0	viscous: 0)
        Cl       : -0.000658553	(pressure: -0.000659713	viscous: 1.15994e-06)
        CmRoll       : 4.11596e-07	(pressure: 4.12321e-07	viscous: -7.24961e-10)
        CmPitch       : -5.84542e-05	(pressure: -5.83802e-05	viscous: -7.3986e-08)
        CmYaw       : 1.94013e-06	(pressure: 0	viscous: 1.94013e-06)
        Cd(f)    : 0.00155251
        Cd(r)    : 0.00155169
        Cs(f)    : 1.94013e-06
        Cs(r)    : -1.94013e-06
        Cl(f)    : -0.000387731
        Cl(r)    : -0.000270823
forces forces write:
    Sum of forces
        Total    : (0 0 0)
        Pressure : (0 0 0)
        Viscous  : (0 0 0)
    Sum of moments
        Total    : (0 0 0)
        Pressure : (0 0 0)
        Viscous  : (0 0 0)


Time = 42

smoothSolver:  Solving for Ux, Initial residual = 0.000646396, Final residual = 5.70412e-05, No Iterations 8
smoothSolver:  Solving for Uy, Initial residual = 0.0159606, Final residual = 0.00132756, No Iterations 3
GAMG:  Solving for p, Initial residual = 0.000878487, Final residual = 8.05589e-05, No Iterations 6
time step continuity errors : sum local = 2.08832e-06, global = -6.11134e-07, cumulative = -2.04676e-05
smoothSolver:  Solving for epsilon, Initial residual = 0.000429481, Final residual = 2.99468e-05, No Iterations 3
smoothSolver:  Solving for k, Initial residual = 0.0169913, Final residual = 0.00161127, No Iterations 2
ExecutionTime = 0.94 s  ClockTime = 1 s

forceCoeffs forceCoeffs execute:
    Coefficients
        Cd       : 0.00309922	(pressure: 0	viscous: 0.00309922)
        Cs       : 0	(pressure: 0	viscous: 0)
        Cl       : -0.000702275	(pressure: -0.000703437	viscous: 1.16234e-06)
        CmRoll       : 4.38922e-07	(pressure: 4.39648e-07	viscous: -7.26465e-10)
        CmPitch       : -3.9602e-05	(pressure: -3.95266e-05	viscous: -7.54015e-08)
        CmYaw       : 1.93701e-06	(pressure: 0	viscous: 1.93701e-06)
        Cd(f)    : 0.00155005
        Cd(r)    : 0.00154917
        Cs(f)    : 1.93701e-06
        Cs(r)    : -1.93701e-06
        Cl(f)    : -0.000390739
        Cl(r)    : -0.000311535
forces forces write:
    Sum of forces
        Total    : (0 0 0)
        Pressure : (0 0 0)
        Viscous  : (0 0 0)
    Sum of moments
        Total    : (0 0 0)
        Pressure : (0 0 0)
        Viscous  : (0 0 0)


Time = 43

smoothSolver:  Solving for Ux, Initial residual = 0.00059594, Final residual = 5.19591e-05, No Iterations 8
smoothSolver:  Solving for Uy, Initial residual = 0.0155287, Final residual = 0.00126329, No Iterations 3
GAMG:  Solving for p, Initial residual = 0.000812617, Final residual = 7.62858e-05, No Iterations 6
time step continuity errors : sum local = 2.02727e-06, global = -5.90901e-07, cumulative = -2.10585e-05
smoothSolver:  Solving for epsilon, Initial residual = 0.000424248, Final residual = 2.8823e-05, No Iterations 3
smoothSolver:  Solving for k, Initial residual = 0.0169104, Final residual = 0.00157971, No Iterations 2
ExecutionTime = 0.96 s  ClockTime = 1 s

forceCoeffs forceCoeffs execute:
    Coefficients
        Cd       : 0.00309448	(pressure: 0	viscous: 0.00309448)
        Cs       : 0	(pressure: 0	viscous: 0)
        Cl       : -0.000746091	(pressure: -0.000747256	viscous: 1.1647e-06)
        CmRoll       : 4.66307e-07	(pressure: 4.67035e-07	viscous: -7.27935e-10)
        CmPitch       : -1.99591e-05	(pressure: -1.98823e-05	viscous: -7.68204e-08)
        CmYaw       : 1.93405e-06	(pressure: 0	viscous: 1.93405e-06)
        Cd(f)    : 0.00154771
        Cd(r)    : 0.00154677
        Cs(f)    : 1.93405e-06
        Cs(r)    : -1.93405e-06
        Cl(f)    : -0.000393005
        Cl(r)    : -0.000353086
forces forces write:
    Sum of forces
        Total    : (0 0 0)
        Pressure : (0 0 0)
        Viscous  : (0 0 0)
    Sum of moments
        Total    : (0 0 0)
        Pressure : (0 0 0)
        Viscous  : (0 0 0)


Time = 44

smoothSolver:  Solving for Ux, Initial residual = 0.00054873, Final residual = 4.72598e-05, No Iterations 8
smoothSolver:  Solving for Uy, Initial residual = 0.0150494, Final residual = 0.00119667, No Iterations 3
GAMG:  Solving for p, Initial residual = 0.000756018, Final residual = 7.20565e-05, No Iterations 6
time step continuity errors : sum local = 1.96134e-06, global = -5.71806e-07, cumulative = -2.16303e-05
smoothSolver:  Solving for epsilon, Initial residual = 0.000419014, Final residual = 2.77692e-05, No Iterations 3
smoothSolver:  Solving for k, Initial residual = 0.0168302, Final residual = 0.00154984, No Iterations 2
ExecutionTime = 0.98 s  ClockTime = 1 s

forceCoeffs forceCoeffs execute:
    Coefficients
        Cd       : 0.00309	(pressure: 0	viscous: 0.00309)
        Cs       : 0	(pressure: 0	viscous: 0)
        Cl       : -0.000789646	(pressure: -0.000790813	viscous: 1.16702e-06)
        CmRoll       : 4.93529e-07	(pressure: 4.94258e-07	viscous: -7.29389e-10)
        CmPitch       : 2.52397e-07	(pressure: 3.30654e-07	viscous: -7.82572e-08)
        CmYaw       : 1.93125e-06	(pressure: 0	viscous: 1.93125e-06)
        Cd(f)    : 0.00154549
        Cd(r)    : 0.00154451
        Cs(f)    : 1.93125e-06
        Cs(r)    : -1.93125e-06
        Cl(f)    : -0.00039457
        Cl(r)    : -0.000395075
forces forces write:
    Sum of forces
        Total    : (0 0 0)
        Pressure : (0 0 0)
        Viscous  : (0 0 0)
    Sum of moments
        Total    : (0 0 0)
        Pressure : (0 0 0)
        Viscous  : (0 0 0)


Time = 45

smoothSolver:  Solving for Ux, Initial residual = 0.00050473, Final residual = 4.29366e-05, No Iterations 8
smoothSolver:  Solving for Uy, Initial residual = 0.0145226, Final residual = 0.00112765, No Iterations 3
GAMG:  Solving for p, Initial residual = 0.000706659, Final residual = 6.79939e-05, No Iterations 6
time step continuity errors : sum local = 1.89387e-06, global = -5.53432e-07, cumulative = -2.21837e-05
smoothSolver:  Solving for epsilon, Initial residual = 0.000414176, Final residual = 4.11942e-05, No Iterations 2
smoothSolver:  Solving for k, Initial residual = 0.0167603, Final residual = 0.00152581, No Iterations 2
ExecutionTime = 1 s  ClockTime = 1 s

forceCoeffs forceCoeffs execute:
    Coefficients
        Cd       : 0.00308577	(pressure: 0	viscous: 0.00308577)
        Cs       : 0	(pressure: 0	viscous: 0)
        Cl       : -0.000832631	(pressure: -0.0008338	viscous: 1.16931e-06)
        CmRoll       : 5.20394e-07	(pressure: 5.21125e-07	viscous: -7.30817e-10)
        CmPitch       : 2.08241e-05	(pressure: 2.09037e-05	viscous: -7.96961e-08)
        CmYaw       : 1.92861e-06	(pressure: 0	viscous: 1.92861e-06)
        Cd(f)    : 0.00154341
        Cd(r)    : 0.00154237
        Cs(f)    : 1.92861e-06
        Cs(r)    : -1.92861e-06
        Cl(f)    : -0.000395491
        Cl(r)    : -0.000437139
forces forces write:
    Sum of forces
        Total    : (0 0 0)
        Pressure : (0 0 0)
        Viscous  : (0 0 0)
    Sum of moments
        Total    : (0 0 0)
        Pressure : (0 0 0)
        Viscous  : (0 0 0)


Time = 46

smoothSolver:  Solving for Ux, Initial residual = 0.00046531, Final residual = 3.90808e-05, No Iterations 8
smoothSolver:  Solving for Uy, Initial residual = 0.0139548, Final residual = 0.00105594, No Iterations 3
GAMG:  Solving for p, Initial residual = 0.000669111, Final residual = 6.30355e-05, No Iterations 6
time step continuity errors : sum local = 1.7949e-06, global = -5.20951e-07, cumulative = -2.27047e-05
smoothSolver:  Solving for epsilon, Initial residual = 0.000417987, Final residual = 4.17483e-05, No Iterations 2
smoothSolver:  Solving for k, Initial residual = 0.01669, Final residual = 0.00150197, No Iterations 2
ExecutionTime = 1.01 s  ClockTime = 1 s

forceCoeffs forceCoeffs execute:
    Coefficients
        Cd       : 0.00308169	(pressure: 0	viscous: 0.00308169)
        Cs       : 0	(pressure: 0	viscous: 0)
        Cl       : -0.000874588	(pressure: -0.00087576	viscous: 1.17159e-06)
        CmRoll       : 5.46618e-07	(pressure: 5.4735e-07	viscous: -7.32246e-10)
        CmPitch       : 4.14436e-05	(pressure: 4.15248e-05	viscous: -8.11418e-08)
        CmYaw       : 1.92605e-06	(pressure: 0	viscous: 1.92605e-06)
        Cd(f)    : 0.00154139
        Cd(r)    : 0.0015403
        Cs(f)    : 1.92605e-06
        Cs(r)    : -1.92605e-06
        Cl(f)    : -0.000395851
        Cl(r)    : -0.000478738
forces forces write:
    Sum of forces
        Total    : (0 0 0)
        Pressure : (0 0 0)
        Viscous  : (0 0 0)
    Sum of moments
        Total    : (0 0 0)
        Pressure : (0 0 0)
        Viscous  : (0 0 0)


Time = 47

smoothSolver:  Solving for Ux, Initial residual = 0.000428812, Final residual = 3.55991e-05, No Iterations 8
smoothSolver:  Solving for Uy, Initial residual = 0.0133363, Final residual = 0.000982233, No Iterations 3
GAMG:  Solving for p, Initial residual = 0.000635571, Final residual = 5.9034e-05, No Iterations 6
time step continuity errors : sum local = 1.71646e-06, global = -5.02303e-07, cumulative = -2.3207e-05
smoothSolver:  Solving for epsilon, Initial residual = 0.000416201, Final residual = 4.1295e-05, No Iterations 2
smoothSolver:  Solving for k, Initial residual = 0.0166163, Final residual = 0.0014784, No Iterations 2
ExecutionTime = 1.03 s  ClockTime = 1 s

forceCoeffs forceCoeffs execute:
    Coefficients
        Cd       : 0.00307785	(pressure: 0	viscous: 0.00307785)
        Cs       : 0	(pressure: 0	viscous: 0)
        Cl       : -0.00091534	(pressure: -0.000916514	viscous: 1.17388e-06)
        CmRoll       : 5.72088e-07	(pressure: 5.72821e-07	viscous: -7.33678e-10)
        CmPitch       : 6.19629e-05	(pressure: 6.20455e-05	viscous: -8.26141e-08)
        CmYaw       : 1.92366e-06	(pressure: 0	viscous: 1.92366e-06)
        Cd(f)    : 0.0015395
        Cd(r)    : 0.00153835
        Cs(f)    : 1.92366e-06
        Cs(r)    : -1.92366e-06
        Cl(f)    : -0.000395707
        Cl(r)    : -0.000519633
forces forces write:
    Sum of forces
        Total    : (0 0 0)
        Pressure : (0 0 0)
        Viscous  : (0 0 0)
    Sum of moments
        Total    : (0 0 0)
        Pressure : (0 0 0)
        Viscous  : (0 0 0)


Time = 48

smoothSolver:  Solving for Ux, Initial residual = 0.000395261, Final residual = 3.24576e-05, No Iterations 8
smoothSolver:  Solving for Uy, Initial residual = 0.0126794, Final residual = 0.000907466, No Iterations 3
GAMG:  Solving for p, Initial residual = 0.000603869, Final residual = 5.55655e-05, No Iterations 6
time step continuity errors : sum local = 1.64782e-06, global = -4.87208e-07, cumulative = -2.36942e-05
smoothSolver:  Solving for epsilon, Initial residual = 0.000413686, Final residual = 4.05885e-05, No Iterations 2
smoothSolver:  Solving for k, Initial residual = 0.0165387, Final residual = 0.00145535, No Iterations 2
ExecutionTime = 1.07 s  ClockTime = 1 s

forceCoeffs forceCoeffs execute:
    Coefficients
        Cd       : 0.00307427	(pressure: 0	viscous: 0.00307427)
        Cs       : 0	(pressure: 0	viscous: 0)
        Cl       : -0.000954491	(pressure: -0.000955667	viscous: 1.17607e-06)
        CmRoll       : 5.96557e-07	(pressure: 5.97292e-07	viscous: -7.35046e-10)
        CmPitch       : 8.21096e-05	(pressure: 8.21936e-05	viscous: -8.40436e-08)
        CmYaw       : 1.92142e-06	(pressure: 0	viscous: 1.92142e-06)
        Cd(f)    : 0.00153773
        Cd(r)    : 0.00153654
        Cs(f)    : 1.92142e-06
        Cs(r)    : -1.92142e-06
        Cl(f)    : -0.000395136
        Cl(r)    : -0.000559355
forces forces write:
    Sum of forces
        Total    : (0 0 0)
        Pressure : (0 0 0)
        Viscous  : (0 0 0)
    Sum of moments
        Total    : (0 0 0)
        Pressure : (0 0 0)
        Viscous  : (0 0 0)


Time = 49

smoothSolver:  Solving for Ux, Initial residual = 0.000364559, Final residual = 2.96368e-05, No Iterations 8
smoothSolver:  Solving for Uy, Initial residual = 0.0119851, Final residual = 0.000832369, No Iterations 3
GAMG:  Solving for p, Initial residual = 0.000575857, Final residual = 5.23104e-05, No Iterations 6
time step continuity errors : sum local = 1.58025e-06, global = -4.73056e-07, cumulative = -2.41673e-05
smoothSolver:  Solving for epsilon, Initial residual = 0.000410818, Final residual = 3.97653e-05, No Iterations 2
smoothSolver:  Solving for k, Initial residual = 0.0164585, Final residual = 0.00143286, No Iterations 2
ExecutionTime = 1.08 s  ClockTime = 1 s

forceCoeffs forceCoeffs execute:
    Coefficients
        Cd       : 0.00307094	(pressure: 0	viscous: 0.00307094)
        Cs       : 0	(pressure: 0	viscous: 0)
        Cl       : -0.000991905	(pressure: -0.000993084	viscous: 1.17815e-06)
        CmRoll       : 6.19941e-07	(pressure: 6.20677e-07	viscous: -7.36342e-10)
        CmPitch       : 0.000101762	(pressure: 0.000101848	viscous: -8.54134e-08)
        CmYaw       : 1.91934e-06	(pressure: 0	viscous: 1.91934e-06)
        Cd(f)    : 0.00153609
        Cd(r)    : 0.00153485
        Cs(f)    : 1.91934e-06
        Cs(r)    : -1.91934e-06
        Cl(f)    : -0.000394191
        Cl(r)    : -0.000597715
forces forces write:
    Sum of forces
        Total    : (0 0 0)
        Pressure : (0 0 0)
        Viscous  : (0 0 0)
    Sum of moments
        Total    : (0 0 0)
        Pressure : (0 0 0)
        Viscous  : (0 0 0)


Time = 50

smoothSolver:  Solving for Ux, Initial residual = 0.000336686, Final residual = 2.71187e-05, No Iterations 8
smoothSolver:  Solving for Uy, Initial residual = 0.0112618, Final residual = 0.0011172, No Iterations 2
GAMG:  Solving for p, Initial residual = 0.000543586, Final residual = 2.78775e-05, No Iterations 8
time step continuity errors : sum local = 8.56896e-07, global = -2.32049e-07, cumulative = -2.43993e-05
smoothSolver:  Solving for epsilon, Initial residual = 0.000408072, Final residual = 3.88953e-05, No Iterations 2
smoothSolver:  Solving for k, Initial residual = 0.0163773, Final residual = 0.00141101, No Iterations 2
ExecutionTime = 1.1 s  ClockTime = 1 s

forceCoeffs forceCoeffs execute:
    Coefficients
        Cd       : 0.00306783	(pressure: 0	viscous: 0.00306783)
        Cs       : 0	(pressure: 0	viscous: 0)
        Cl       : -0.00103591	(pressure: -0.00103708	viscous: 1.17905e-06)
        CmRoll       : 6.47441e-07	(pressure: 6.48178e-07	viscous: -7.36905e-10)
[...]
smoothSolver:  Solving for k, Initial residual = 3.80043e-07, Final residual = 3.80043e-07, No Iterations 0
ExecutionTime = 16.26 s  ClockTime = 16 s

forceCoeffs forceCoeffs execute:
    Coefficients
        Cd       : 0.00292838	(pressure: 0	viscous: 0.00292838)
        Cs       : 0	(pressure: 0	viscous: 0)
        Cl       : -0.00141165	(pressure: -0.0014129	viscous: 1.24673e-06)
        CmRoll       : 8.82283e-07	(pressure: 8.83062e-07	viscous: -7.79205e-10)
        CmPitch       : 0.00033352	(pressure: 0.000333623	viscous: -1.03505e-07)
        CmYaw       : 1.83024e-06	(pressure: 0	viscous: 1.83024e-06)
        Cd(f)    : 0.00146507
        Cd(r)    : 0.00146331
        Cs(f)    : 1.83024e-06
        Cs(r)    : -1.83024e-06
        Cl(f)    : -0.000372306
        Cl(r)    : -0.00103935
forces forces write:
    Sum of forces
        Total    : (0 0 0)
        Pressure : (0 0 0)
        Viscous  : (0 0 0)
    Sum of moments
        Total    : (0 0 0)
        Pressure : (0 0 0)
        Viscous  : (0 0 0)


Time = 989

smoothSolver:  Solving for Ux, Initial residual = 1.23265e-06, Final residual = 6.21064e-09, No Iterations 1
smoothSolver:  Solving for Uy, Initial residual = 5.18685e-06, Final residual = 7.23629e-08, No Iterations 1
GAMG:  Solving for p, Initial residual = 4.31721e-06, Final residual = 5.04721e-07, No Iterations 1
time step continuity errors : sum local = 1.89686e-08, global = -1.98633e-10, cumulative = -3.35432e-05
smoothSolver:  Solving for epsilon, Initial residual = 9.65637e-07, Final residual = 9.65637e-07, No Iterations 0
smoothSolver:  Solving for k, Initial residual = 3.80043e-07, Final residual = 3.80043e-07, No Iterations 0
ExecutionTime = 16.28 s  ClockTime = 16 s

forceCoeffs forceCoeffs execute:
    Coefficients
        Cd       : 0.00292838	(pressure: 0	viscous: 0.00292838)
        Cs       : 0	(pressure: 0	viscous: 0)
        Cl       : -0.00141165	(pressure: -0.0014129	viscous: 1.24673e-06)
        CmRoll       : 8.82283e-07	(pressure: 8.83062e-07	viscous: -7.79205e-10)
        CmPitch       : 0.00033352	(pressure: 0.000333623	viscous: -1.03505e-07)
        CmYaw       : 1.83024e-06	(pressure: 0	viscous: 1.83024e-06)
        Cd(f)    : 0.00146507
        Cd(r)    : 0.00146331
        Cs(f)    : 1.83024e-06
        Cs(r)    : -1.83024e-06
        Cl(f)    : -0.000372306
        Cl(r)    : -0.00103935
forces forces write:
    Sum of forces
        Total    : (0 0 0)
        Pressure : (0 0 0)
        Viscous  : (0 0 0)
    Sum of moments
        Total    : (0 0 0)
        Pressure : (0 0 0)
        Viscous  : (0 0 0)


Time = 990

smoothSolver:  Solving for Ux, Initial residual = 6.06842e-07, Final residual = 6.06842e-07, No Iterations 0
smoothSolver:  Solving for Uy, Initial residual = 3.11013e-06, Final residual = 4.73844e-08, No Iterations 1
GAMG:  Solving for p, Initial residual = 6.89793e-06, Final residual = 8.21153e-07, No Iterations 1
time step continuity errors : sum local = 3.08607e-08, global = -2.35697e-10, cumulative = -3.35435e-05
smoothSolver:  Solving for epsilon, Initial residual = 9.65637e-07, Final residual = 9.65637e-07, No Iterations 0
smoothSolver:  Solving for k, Initial residual = 3.80043e-07, Final residual = 3.80043e-07, No Iterations 0
ExecutionTime = 16.29 s  ClockTime = 16 s

forceCoeffs forceCoeffs execute:
    Coefficients
        Cd       : 0.00292838	(pressure: 0	viscous: 0.00292838)
        Cs       : 0	(pressure: 0	viscous: 0)
        Cl       : -0.00141165	(pressure: -0.0014129	viscous: 1.24673e-06)
        CmRoll       : 8.82283e-07	(pressure: 8.83062e-07	viscous: -7.79205e-10)
        CmPitch       : 0.00033352	(pressure: 0.000333624	viscous: -1.03505e-07)
        CmYaw       : 1.83024e-06	(pressure: 0	viscous: 1.83024e-06)
        Cd(f)    : 0.00146507
        Cd(r)    : 0.00146331
        Cs(f)    : 1.83024e-06
        Cs(r)    : -1.83024e-06
        Cl(f)    : -0.000372306
        Cl(r)    : -0.00103935
forces forces write:
    Sum of forces
        Total    : (0 0 0)
        Pressure : (0 0 0)
        Viscous  : (0 0 0)
    Sum of moments
        Total    : (0 0 0)
        Pressure : (0 0 0)
        Viscous  : (0 0 0)


Time = 991

smoothSolver:  Solving for Ux, Initial residual = 7.40438e-07, Final residual = 7.40438e-07, No Iterations 0
smoothSolver:  Solving for Uy, Initial residual = 3.59724e-06, Final residual = 5.10576e-08, No Iterations 1
GAMG:  Solving for p, Initial residual = 8.26386e-06, Final residual = 2.22825e-07, No Iterations 2
time step continuity errors : sum local = 8.37423e-09, global = 2.64868e-10, cumulative = -3.35432e-05
smoothSolver:  Solving for epsilon, Initial residual = 9.65637e-07, Final residual = 9.65637e-07, No Iterations 0
smoothSolver:  Solving for k, Initial residual = 3.80043e-07, Final residual = 3.80043e-07, No Iterations 0
ExecutionTime = 16.31 s  ClockTime = 16 s

forceCoeffs forceCoeffs execute:
    Coefficients
        Cd       : 0.00292838	(pressure: 0	viscous: 0.00292838)
        Cs       : 0	(pressure: 0	viscous: 0)
        Cl       : -0.00141165	(pressure: -0.0014129	viscous: 1.24673e-06)
        CmRoll       : 8.82283e-07	(pressure: 8.83062e-07	viscous: -7.79205e-10)
        CmPitch       : 0.00033352	(pressure: 0.000333624	viscous: -1.03505e-07)
        CmYaw       : 1.83024e-06	(pressure: 0	viscous: 1.83024e-06)
        Cd(f)    : 0.00146507
        Cd(r)    : 0.00146331
        Cs(f)    : 1.83024e-06
        Cs(r)    : -1.83024e-06
        Cl(f)    : -0.000372306
        Cl(r)    : -0.00103935
forces forces write:
    Sum of forces
        Total    : (0 0 0)
        Pressure : (0 0 0)
        Viscous  : (0 0 0)
    Sum of moments
        Total    : (0 0 0)
        Pressure : (0 0 0)
        Viscous  : (0 0 0)


Time = 992

smoothSolver:  Solving for Ux, Initial residual = 9.02021e-07, Final residual = 9.02021e-07, No Iterations 0
smoothSolver:  Solving for Uy, Initial residual = 4.39459e-06, Final residual = 6.35917e-08, No Iterations 1
GAMG:  Solving for p, Initial residual = 9.31833e-06, Final residual = 2.40999e-07, No Iterations 2
time step continuity errors : sum local = 9.05727e-09, global = 3.48583e-10, cumulative = -3.35429e-05
smoothSolver:  Solving for epsilon, Initial residual = 9.65637e-07, Final residual = 9.65637e-07, No Iterations 0
smoothSolver:  Solving for k, Initial residual = 3.80043e-07, Final residual = 3.80043e-07, No Iterations 0
ExecutionTime = 16.33 s  ClockTime = 16 s

forceCoeffs forceCoeffs execute:
    Coefficients
        Cd       : 0.00292838	(pressure: 0	viscous: 0.00292838)
        Cs       : 0	(pressure: 0	viscous: 0)
        Cl       : -0.00141165	(pressure: -0.0014129	viscous: 1.24673e-06)
        CmRoll       : 8.82283e-07	(pressure: 8.83062e-07	viscous: -7.79205e-10)
        CmPitch       : 0.00033352	(pressure: 0.000333623	viscous: -1.03505e-07)
        CmYaw       : 1.83024e-06	(pressure: 0	viscous: 1.83024e-06)
        Cd(f)    : 0.00146507
        Cd(r)    : 0.00146331
        Cs(f)    : 1.83024e-06
        Cs(r)    : -1.83024e-06
        Cl(f)    : -0.000372306
        Cl(r)    : -0.00103935
forces forces write:
    Sum of forces
        Total    : (0 0 0)
        Pressure : (0 0 0)
        Viscous  : (0 0 0)
    Sum of moments
        Total    : (0 0 0)
        Pressure : (0 0 0)
        Viscous  : (0 0 0)


Time = 993

smoothSolver:  Solving for Ux, Initial residual = 1.15717e-06, Final residual = 5.81526e-09, No Iterations 1
smoothSolver:  Solving for Uy, Initial residual = 4.88027e-06, Final residual = 7.31113e-08, No Iterations 1
GAMG:  Solving for p, Initial residual = 3.79831e-06, Final residual = 4.15526e-07, No Iterations 1
time step continuity errors : sum local = 1.56164e-08, global = -2.00951e-11, cumulative = -3.35429e-05
smoothSolver:  Solving for epsilon, Initial residual = 9.65637e-07, Final residual = 9.65637e-07, No Iterations 0
smoothSolver:  Solving for k, Initial residual = 3.80043e-07, Final residual = 3.80043e-07, No Iterations 0
ExecutionTime = 16.34 s  ClockTime = 16 s

forceCoeffs forceCoeffs execute:
    Coefficients
        Cd       : 0.00292838	(pressure: 0	viscous: 0.00292838)
        Cs       : 0	(pressure: 0	viscous: 0)
        Cl       : -0.00141165	(pressure: -0.0014129	viscous: 1.24673e-06)
        CmRoll       : 8.82283e-07	(pressure: 8.83062e-07	viscous: -7.79205e-10)
        CmPitch       : 0.00033352	(pressure: 0.000333623	viscous: -1.03505e-07)
        CmYaw       : 1.83024e-06	(pressure: 0	viscous: 1.83024e-06)
        Cd(f)    : 0.00146507
        Cd(r)    : 0.00146331
        Cs(f)    : 1.83024e-06
        Cs(r)    : -1.83024e-06
        Cl(f)    : -0.000372306
        Cl(r)    : -0.00103935
forces forces write:
    Sum of forces
        Total    : (0 0 0)
        Pressure : (0 0 0)
        Viscous  : (0 0 0)
    Sum of moments
        Total    : (0 0 0)
        Pressure : (0 0 0)
        Viscous  : (0 0 0)


Time = 994

smoothSolver:  Solving for Ux, Initial residual = 5.8376e-07, Final residual = 5.8376e-07, No Iterations 0
smoothSolver:  Solving for Uy, Initial residual = 2.77741e-06, Final residual = 4.73108e-08, No Iterations 1
GAMG:  Solving for p, Initial residual = 6.38038e-06, Final residual = 8.32991e-07, No Iterations 1
time step continuity errors : sum local = 3.13056e-08, global = -9.51243e-11, cumulative = -3.3543e-05
smoothSolver:  Solving for epsilon, Initial residual = 9.65637e-07, Final residual = 9.65637e-07, No Iterations 0
smoothSolver:  Solving for k, Initial residual = 3.80043e-07, Final residual = 3.80043e-07, No Iterations 0
ExecutionTime = 16.36 s  ClockTime = 16 s

forceCoeffs forceCoeffs execute:
    Coefficients
        Cd       : 0.00292838	(pressure: 0	viscous: 0.00292838)
        Cs       : 0	(pressure: 0	viscous: 0)
        Cl       : -0.00141165	(pressure: -0.0014129	viscous: 1.24673e-06)
        CmRoll       : 8.82283e-07	(pressure: 8.83062e-07	viscous: -7.79205e-10)
        CmPitch       : 0.00033352	(pressure: 0.000333624	viscous: -1.03505e-07)
        CmYaw       : 1.83024e-06	(pressure: 0	viscous: 1.83024e-06)
        Cd(f)    : 0.00146507
        Cd(r)    : 0.00146331
        Cs(f)    : 1.83024e-06
        Cs(r)    : -1.83024e-06
        Cl(f)    : -0.000372306
        Cl(r)    : -0.00103935
forces forces write:
    Sum of forces
        Total    : (0 0 0)
        Pressure : (0 0 0)
        Viscous  : (0 0 0)
    Sum of moments
        Total    : (0 0 0)
        Pressure : (0 0 0)
        Viscous  : (0 0 0)


Time = 995

smoothSolver:  Solving for Ux, Initial residual = 7.03018e-07, Final residual = 7.03018e-07, No Iterations 0
smoothSolver:  Solving for Uy, Initial residual = 3.33516e-06, Final residual = 4.79097e-08, No Iterations 1
GAMG:  Solving for p, Initial residual = 8.2242e-06, Final residual = 9.81603e-07, No Iterations 1
time step continuity errors : sum local = 3.68907e-08, global = -4.07428e-10, cumulative = -3.35434e-05
smoothSolver:  Solving for epsilon, Initial residual = 9.65637e-07, Final residual = 9.65637e-07, No Iterations 0
smoothSolver:  Solving for k, Initial residual = 3.80043e-07, Final residual = 3.80043e-07, No Iterations 0
ExecutionTime = 16.37 s  ClockTime = 16 s

forceCoeffs forceCoeffs execute:
    Coefficients
        Cd       : 0.00292838	(pressure: 0	viscous: 0.00292838)
        Cs       : 0	(pressure: 0	viscous: 0)
        Cl       : -0.00141165	(pressure: -0.0014129	viscous: 1.24673e-06)
        CmRoll       : 8.82283e-07	(pressure: 8.83062e-07	viscous: -7.79205e-10)
        CmPitch       : 0.00033352	(pressure: 0.000333624	viscous: -1.03505e-07)
        CmYaw       : 1.83024e-06	(pressure: 0	viscous: 1.83024e-06)
        Cd(f)    : 0.00146507
        Cd(r)    : 0.00146331
        Cs(f)    : 1.83024e-06
        Cs(r)    : -1.83024e-06
        Cl(f)    : -0.000372306
        Cl(r)    : -0.00103935
forces forces write:
    Sum of forces
        Total    : (0 0 0)
        Pressure : (0 0 0)
        Viscous  : (0 0 0)
    Sum of moments
        Total    : (0 0 0)
        Pressure : (0 0 0)
        Viscous  : (0 0 0)


Time = 996

smoothSolver:  Solving for Ux, Initial residual = 8.63093e-07, Final residual = 8.63093e-07, No Iterations 0
smoothSolver:  Solving for Uy, Initial residual = 4.0703e-06, Final residual = 5.72093e-08, No Iterations 1
GAMG:  Solving for p, Initial residual = 8.99604e-06, Final residual = 2.42097e-07, No Iterations 2
time step continuity errors : sum local = 9.09853e-09, global = 1.87519e-10, cumulative = -3.35432e-05
smoothSolver:  Solving for epsilon, Initial residual = 9.65637e-07, Final residual = 9.65637e-07, No Iterations 0
smoothSolver:  Solving for k, Initial residual = 3.80043e-07, Final residual = 3.80043e-07, No Iterations 0
ExecutionTime = 16.39 s  ClockTime = 16 s

forceCoeffs forceCoeffs execute:
    Coefficients
        Cd       : 0.00292838	(pressure: 0	viscous: 0.00292838)
        Cs       : 0	(pressure: 0	viscous: 0)
        Cl       : -0.00141165	(pressure: -0.0014129	viscous: 1.24673e-06)
        CmRoll       : 8.82283e-07	(pressure: 8.83062e-07	viscous: -7.79205e-10)
        CmPitch       : 0.000333521	(pressure: 0.000333624	viscous: -1.03505e-07)
        CmYaw       : 1.83024e-06	(pressure: 0	viscous: 1.83024e-06)
        Cd(f)    : 0.00146507
        Cd(r)    : 0.00146331
        Cs(f)    : 1.83024e-06
        Cs(r)    : -1.83024e-06
        Cl(f)    : -0.000372306
        Cl(r)    : -0.00103935
forces forces write:
    Sum of forces
        Total    : (0 0 0)
        Pressure : (0 0 0)
        Viscous  : (0 0 0)
    Sum of moments
        Total    : (0 0 0)
        Pressure : (0 0 0)
        Viscous  : (0 0 0)


Time = 997

smoothSolver:  Solving for Ux, Initial residual = 1.0781e-06, Final residual = 5.93028e-09, No Iterations 1
smoothSolver:  Solving for Uy, Initial residual = 4.8399e-06, Final residual = 7.313e-08, No Iterations 1
GAMG:  Solving for p, Initial residual = 3.33913e-06, Final residual = 3.82278e-07, No Iterations 1
time step continuity errors : sum local = 1.43668e-08, global = 1.74904e-10, cumulative = -3.3543e-05
smoothSolver:  Solving for epsilon, Initial residual = 9.65637e-07, Final residual = 9.65637e-07, No Iterations 0
smoothSolver:  Solving for k, Initial residual = 3.80043e-07, Final residual = 3.80043e-07, No Iterations 0
ExecutionTime = 16.41 s  ClockTime = 16 s

forceCoeffs forceCoeffs execute:
    Coefficients
        Cd       : 0.00292838	(pressure: 0	viscous: 0.00292838)
        Cs       : 0	(pressure: 0	viscous: 0)
        Cl       : -0.00141165	(pressure: -0.0014129	viscous: 1.24673e-06)
        CmRoll       : 8.82283e-07	(pressure: 8.83062e-07	viscous: -7.79205e-10)
        CmPitch       : 0.00033352	(pressure: 0.000333624	viscous: -1.03505e-07)
        CmYaw       : 1.83024e-06	(pressure: 0	viscous: 1.83024e-06)
        Cd(f)    : 0.00146507
        Cd(r)    : 0.00146331
        Cs(f)    : 1.83024e-06
        Cs(r)    : -1.83024e-06
        Cl(f)    : -0.000372306
        Cl(r)    : -0.00103935
forces forces write:
    Sum of forces
        Total    : (0 0 0)
        Pressure : (0 0 0)
        Viscous  : (0 0 0)
    Sum of moments
        Total    : (0 0 0)
        Pressure : (0 0 0)
        Viscous  : (0 0 0)


Time = 998

smoothSolver:  Solving for Ux, Initial residual = 5.44871e-07, Final residual = 5.44871e-07, No Iterations 0
smoothSolver:  Solving for Uy, Initial residual = 2.65725e-06, Final residual = 4.61272e-08, No Iterations 1
GAMG:  Solving for p, Initial residual = 5.85213e-06, Final residual = 7.24231e-07, No Iterations 1
time step continuity errors : sum local = 2.72182e-08, global = 2.03164e-10, cumulative = -3.35428e-05
smoothSolver:  Solving for epsilon, Initial residual = 9.65637e-07, Final residual = 9.65637e-07, No Iterations 0
smoothSolver:  Solving for k, Initial residual = 3.80043e-07, Final residual = 3.80043e-07, No Iterations 0
ExecutionTime = 16.42 s  ClockTime = 16 s

forceCoeffs forceCoeffs execute:
    Coefficients
        Cd       : 0.00292838	(pressure: 0	viscous: 0.00292838)
        Cs       : 0	(pressure: 0	viscous: 0)
        Cl       : -0.00141165	(pressure: -0.0014129	viscous: 1.24673e-06)
        CmRoll       : 8.82283e-07	(pressure: 8.83062e-07	viscous: -7.79205e-10)
        CmPitch       : 0.00033352	(pressure: 0.000333624	viscous: -1.03505e-07)
        CmYaw       : 1.83024e-06	(pressure: 0	viscous: 1.83024e-06)
        Cd(f)    : 0.00146507
        Cd(r)    : 0.00146331
        Cs(f)    : 1.83024e-06
        Cs(r)    : -1.83024e-06
        Cl(f)    : -0.000372306
        Cl(r)    : -0.00103935
forces forces write:
    Sum of forces
        Total    : (0 0 0)
        Pressure : (0 0 0)
        Viscous  : (0 0 0)
    Sum of moments
        Total    : (0 0 0)
        Pressure : (0 0 0)
        Viscous  : (0 0 0)


Time = 999

smoothSolver:  Solving for Ux, Initial residual = 6.80757e-07, Final residual = 6.80757e-07, No Iterations 0
smoothSolver:  Solving for Uy, Initial residual = 2.88327e-06, Final residual = 4.56613e-08, No Iterations 1
GAMG:  Solving for p, Initial residual = 7.478e-06, Final residual = 9.70819e-07, No Iterations 1
time step continuity errors : sum local = 3.64854e-08, global = -7.71555e-11, cumulative = -3.35429e-05
smoothSolver:  Solving for epsilon, Initial residual = 9.65637e-07, Final residual = 9.65637e-07, No Iterations 0
smoothSolver:  Solving for k, Initial residual = 3.80043e-07, Final residual = 3.80043e-07, No Iterations 0
ExecutionTime = 16.44 s  ClockTime = 16 s

forceCoeffs forceCoeffs execute:
    Coefficients
        Cd       : 0.00292838	(pressure: 0	viscous: 0.00292838)
        Cs       : 0	(pressure: 0	viscous: 0)
        Cl       : -0.00141165	(pressure: -0.0014129	viscous: 1.24673e-06)
        CmRoll       : 8.82283e-07	(pressure: 8.83062e-07	viscous: -7.79205e-10)
        CmPitch       : 0.00033352	(pressure: 0.000333624	viscous: -1.03505e-07)
        CmYaw       : 1.83024e-06	(pressure: 0	viscous: 1.83024e-06)
        Cd(f)    : 0.00146507
        Cd(r)    : 0.00146331
        Cs(f)    : 1.83024e-06
        Cs(r)    : -1.83024e-06
        Cl(f)    : -0.000372306
        Cl(r)    : -0.00103935
forces forces write:
    Sum of forces
        Total    : (0 0 0)
        Pressure : (0 0 0)
        Viscous  : (0 0 0)
    Sum of moments
        Total    : (0 0 0)
        Pressure : (0 0 0)
        Viscous  : (0 0 0)


Time = 1000

smoothSolver:  Solving for Ux, Initial residual = 8.17113e-07, Final residual = 8.17113e-07, No Iterations 0
smoothSolver:  Solving for Uy, Initial residual = 3.94182e-06, Final residual = 5.36996e-08, No Iterations 1
GAMG:  Solving for p, Initial residual = 9.0486e-06, Final residual = 2.60491e-07, No Iterations 2
time step continuity errors : sum local = 9.7898e-09, global = -2.94725e-10, cumulative = -3.35432e-05
smoothSolver:  Solving for epsilon, Initial residual = 9.65637e-07, Final residual = 9.65637e-07, No Iterations 0
smoothSolver:  Solving for k, Initial residual = 3.80043e-07, Final residual = 3.80043e-07, No Iterations 0
ExecutionTime = 16.49 s  ClockTime = 16 s

forceCoeffs forceCoeffs execute:
    Coefficients
        Cd       : 0.00292838	(pressure: 0	viscous: 0.00292838)
        Cs       : 0	(pressure: 0	viscous: 0)
        Cl       : -0.00141165	(pressure: -0.0014129	viscous: 1.24673e-06)
        CmRoll       : 8.82283e-07	(pressure: 8.83062e-07	viscous: -7.79205e-10)
        CmPitch       : 0.000333521	(pressure: 0.000333624	viscous: -1.03505e-07)
        CmYaw       : 1.83024e-06	(pressure: 0	viscous: 1.83024e-06)
        Cd(f)    : 0.00146507
        Cd(r)    : 0.00146331
        Cs(f)    : 1.83024e-06
        Cs(r)    : -1.83024e-06
        Cl(f)    : -0.000372306
        Cl(r)    : -0.00103935
forces forces write:
    Sum of forces
        Total    : (0 0 0)
        Pressure : (0 0 0)
        Viscous  : (0 0 0)
    Sum of moments
        Total    : (0 0 0)
        Pressure : (0 0 0)
        Viscous  : (0 0 0)


End

