/*---------------------------------------------------------------------------*\
| =========                 |                                                 |
| \\      /  F ield         | OpenFOAM: The Open Source CFD Toolbox           |
|  \\    /   O peration     | Version:  v1912                                 |
|   \\  /    A nd           | Website:  www.openfoam.com                      |
|    \\/     M anipulation  |                                                 |
\*---------------------------------------------------------------------------*/
Build  : _f3950763fe-20191219 OPENFOAM=1912
Arch   : "LSB;label=32;scalar=64"
Exec   : simpleFoam
Date   : Jun 06 2020
Time   : 12:18:27
Host   : DESKTOP-7S8DQ3L
PID    : 5282
I/O    : uncollated
Case   : /home/logankp/OpenFOAM/logankp-v1912/run/CFD/Midterm_Case/Simple_Mesh/SteadyState/Turbulent
nProcs : 1
trapFpe: Floating point exception trapping enabled (FOAM_SIGFPE).
fileModificationChecking : Monitoring run-time modified files using timeStampMaster (fileModificationSkew 10)
allowSystemOperations : Allowing user-supplied system call operations

// * * * * * * * * * * * * * * * * * * * * * * * * * * * * * * * * * * * * * //
Create time

Create mesh for time = 0


SIMPLE: convergence criteria
    field p	 tolerance 1e-07
    field U	 tolerance 1e-08
    field "”(kjepsilonjomegajfjv2)”"	 tolerance 1e-08

Reading field p

Reading field U

Reading/calculating face flux field phi

Selecting incompressible transport model Newtonian
Selecting turbulence model type RAS
Selecting RAS turbulence model kEpsilon
RAS
{
    RASModel        kEpsilon;
    turbulence      on;
    printCoeffs     on;
    Cmu             0.09;
    C1              1.44;
    C2              1.92;
    C3              0;
    sigmak          1;
    sigmaEps        1.3;
}

No MRF models present

No finite volume options present

Starting time loop

Time = 1

smoothSolver:  Solving for Ux, Initial residual = 1, Final residual = 0.000193444, No Iterations 1
smoothSolver:  Solving for Uy, Initial residual = 1, Final residual = 0.000166126, No Iterations 1
GAMG:  Solving for p, Initial residual = 1, Final residual = 0.0889814, No Iterations 9
time step continuity errors : sum local = 0.00375275, global = 0.000838973, cumulative = 0.000838973
smoothSolver:  Solving for epsilon, Initial residual = 0.993787, Final residual = 0.000264335, No Iterations 1
smoothSolver:  Solving for k, Initial residual = 1, Final residual = 0.0643215, No Iterations 1
bounding k, min: -0.00157455 max: 0.0173835 average: 0.00210334
ExecutionTime = 0.15 s  ClockTime = 0 s

Time = 2

smoothSolver:  Solving for Ux, Initial residual = 0.388088, Final residual = 0.0239338, No Iterations 1
smoothSolver:  Solving for Uy, Initial residual = 0.469507, Final residual = 0.0184353, No Iterations 2
GAMG:  Solving for p, Initial residual = 0.855922, Final residual = 0.0526829, No Iterations 4
time step continuity errors : sum local = 0.00727443, global = -0.0010496, cumulative = -0.000210627
smoothSolver:  Solving for epsilon, Initial residual = 0.99474, Final residual = 0.000145391, No Iterations 1
smoothSolver:  Solving for k, Initial residual = 0.217827, Final residual = 0.00982965, No Iterations 1
bounding k, min: -0.000177974 max: 0.017 average: 0.000649267
ExecutionTime = 0.17 s  ClockTime = 0 s

Time = 3

smoothSolver:  Solving for Ux, Initial residual = 0.249235, Final residual = 0.022048, No Iterations 1
smoothSolver:  Solving for Uy, Initial residual = 0.336595, Final residual = 0.0276161, No Iterations 1
GAMG:  Solving for p, Initial residual = 0.356184, Final residual = 0.0241058, No Iterations 3
time step continuity errors : sum local = 0.00859442, global = 0.00109214, cumulative = 0.000881513
smoothSolver:  Solving for epsilon, Initial residual = 0.625069, Final residual = 0.000283917, No Iterations 1
bounding epsilon, min: -0.000193657 max: 0.63 average: 0.00206114
smoothSolver:  Solving for k, Initial residual = 0.0964483, Final residual = 0.00448323, No Iterations 1
bounding k, min: -5.58917e-06 max: 0.017 average: 0.000452352
ExecutionTime = 0.18 s  ClockTime = 0 s

Time = 4

smoothSolver:  Solving for Ux, Initial residual = 0.17376, Final residual = 0.00496496, No Iterations 2
smoothSolver:  Solving for Uy, Initial residual = 0.207745, Final residual = 0.0060719, No Iterations 2
GAMG:  Solving for p, Initial residual = 0.109056, Final residual = 0.00883889, No Iterations 3
time step continuity errors : sum local = 0.00578952, global = 0.000586256, cumulative = 0.00146777
smoothSolver:  Solving for epsilon, Initial residual = 0.179545, Final residual = 0.000646702, No Iterations 1
bounding epsilon, min: -1.44374e-05 max: 0.63 average: 0.00223236
smoothSolver:  Solving for k, Initial residual = 0.0884187, Final residual = 0.00763979, No Iterations 1
bounding k, min: -5.22177e-06 max: 0.017 average: 0.000354135
ExecutionTime = 0.21 s  ClockTime = 0 s

Time = 5

smoothSolver:  Solving for Ux, Initial residual = 0.129097, Final residual = 0.00538781, No Iterations 2
smoothSolver:  Solving for Uy, Initial residual = 0.188877, Final residual = 0.0056842, No Iterations 2
GAMG:  Solving for p, Initial residual = 0.0933863, Final residual = 0.00850686, No Iterations 2
time step continuity errors : sum local = 0.00742077, global = -0.000317758, cumulative = 0.00115001
smoothSolver:  Solving for epsilon, Initial residual = 0.0822087, Final residual = 0.000572217, No Iterations 1
bounding epsilon, min: -2.62166e-05 max: 0.63 average: 0.00125597
smoothSolver:  Solving for k, Initial residual = 0.0628459, Final residual = 0.00157882, No Iterations 2
bounding k, min: -4.06296e-07 max: 0.017 average: 0.000363954
ExecutionTime = 0.23 s  ClockTime = 0 s

Time = 6

smoothSolver:  Solving for Ux, Initial residual = 0.112781, Final residual = 0.00679972, No Iterations 2
smoothSolver:  Solving for Uy, Initial residual = 0.160256, Final residual = 0.00501281, No Iterations 2
GAMG:  Solving for p, Initial residual = 0.0850957, Final residual = 0.00710324, No Iterations 2
time step continuity errors : sum local = 0.00664306, global = -0.00036288, cumulative = 0.000787131
smoothSolver:  Solving for epsilon, Initial residual = 0.0878059, Final residual = 0.00409052, No Iterations 1
bounding epsilon, min: -8.61134e-07 max: 0.63 average: 0.00224943
smoothSolver:  Solving for k, Initial residual = 0.124581, Final residual = 0.00897196, No Iterations 1
bounding k, min: -8.104e-05 max: 0.017 average: 0.000317774
ExecutionTime = 0.25 s  ClockTime = 0 s

Time = 7

smoothSolver:  Solving for Ux, Initial residual = 0.11681, Final residual = 0.00831544, No Iterations 2
smoothSolver:  Solving for Uy, Initial residual = 0.173019, Final residual = 0.00731615, No Iterations 2
GAMG:  Solving for p, Initial residual = 0.0872327, Final residual = 0.00687248, No Iterations 2
time step continuity errors : sum local = 0.00688471, global = -0.000452419, cumulative = 0.000334712
smoothSolver:  Solving for epsilon, Initial residual = 0.336902, Final residual = 0.00093386, No Iterations 1
bounding epsilon, min: -4.92061e-07 max: 0.63 average: 0.00120976
smoothSolver:  Solving for k, Initial residual = 0.0906621, Final residual = 0.00165371, No Iterations 2
bounding k, min: -3.26472e-08 max: 0.017 average: 0.000338016
ExecutionTime = 0.27 s  ClockTime = 0 s

Time = 8

smoothSolver:  Solving for Ux, Initial residual = 0.126382, Final residual = 0.0108014, No Iterations 2
smoothSolver:  Solving for Uy, Initial residual = 0.176228, Final residual = 0.00854999, No Iterations 2
GAMG:  Solving for p, Initial residual = 0.085232, Final residual = 0.00778233, No Iterations 2
time step continuity errors : sum local = 0.00809255, global = -0.000150179, cumulative = 0.000184534
smoothSolver:  Solving for epsilon, Initial residual = 0.192359, Final residual = 0.00766465, No Iterations 1
bounding epsilon, min: -2.48852e-07 max: 0.63 average: 0.00213041
smoothSolver:  Solving for k, Initial residual = 0.122463, Final residual = 0.00794349, No Iterations 1
bounding k, min: -1.11498e-11 max: 0.017 average: 0.000310261
ExecutionTime = 0.27 s  ClockTime = 0 s

Time = 9

smoothSolver:  Solving for Ux, Initial residual = 0.138927, Final residual = 0.0128187, No Iterations 2
smoothSolver:  Solving for Uy, Initial residual = 0.189075, Final residual = 0.0127395, No Iterations 2
GAMG:  Solving for p, Initial residual = 0.084692, Final residual = 0.00409917, No Iterations 3
time step continuity errors : sum local = 0.0045417, global = -5.45631e-05, cumulative = 0.000129971
smoothSolver:  Solving for epsilon, Initial residual = 0.33818, Final residual = 0.000266483, No Iterations 1
bounding epsilon, min: -1.08445e-08 max: 0.63 average: 0.00116705
smoothSolver:  Solving for k, Initial residual = 0.0470896, Final residual = 0.00093604, No Iterations 2
ExecutionTime = 0.28 s  ClockTime = 0 s

Time = 10

smoothSolver:  Solving for Ux, Initial residual = 0.158523, Final residual = 0.014703, No Iterations 2
smoothSolver:  Solving for Uy, Initial residual = 0.204841, Final residual = 0.0181201, No Iterations 2
GAMG:  Solving for p, Initial residual = 0.0891473, Final residual = 0.00385138, No Iterations 3
time step continuity errors : sum local = 0.00445104, global = 6.45392e-05, cumulative = 0.00019451
smoothSolver:  Solving for epsilon, Initial residual = 0.169159, Final residual = 0.00567096, No Iterations 1
bounding epsilon, min: -4.24569e-05 max: 0.63 average: 0.00207216
smoothSolver:  Solving for k, Initial residual = 0.107749, Final residual = 0.00696779, No Iterations 1
bounding k, min: -1.54368e-05 max: 0.017 average: 0.000309009
ExecutionTime = 0.3 s  ClockTime = 0 s

Time = 11

smoothSolver:  Solving for Ux, Initial residual = 0.175762, Final residual = 0.0160372, No Iterations 2
smoothSolver:  Solving for Uy, Initial residual = 0.220001, Final residual = 0.00948459, No Iterations 3
GAMG:  Solving for p, Initial residual = 0.0994443, Final residual = 0.00432835, No Iterations 3
time step continuity errors : sum local = 0.00475097, global = 2.61867e-05, cumulative = 0.000220696
smoothSolver:  Solving for epsilon, Initial residual = 0.456272, Final residual = 0.000722371, No Iterations 1
bounding epsilon, min: -2.86322e-05 max: 0.63 average: 0.00113761
smoothSolver:  Solving for k, Initial residual = 0.089292, Final residual = 0.00212947, No Iterations 2
bounding k, min: -4.39707e-06 max: 0.017 average: 0.000325038
ExecutionTime = 0.31 s  ClockTime = 0 s

Time = 12

smoothSolver:  Solving for Ux, Initial residual = 0.173455, Final residual = 0.0172855, No Iterations 2
smoothSolver:  Solving for Uy, Initial residual = 0.221624, Final residual = 0.0107807, No Iterations 3
GAMG:  Solving for p, Initial residual = 0.112666, Final residual = 0.0101914, No Iterations 2
time step continuity errors : sum local = 0.0114161, global = 0.000409404, cumulative = 0.000630101
smoothSolver:  Solving for epsilon, Initial residual = 0.187898, Final residual = 0.00645019, No Iterations 1
smoothSolver:  Solving for k, Initial residual = 0.0920114, Final residual = 0.00603992, No Iterations 1
bounding k, min: -8.60218e-05 max: 0.017 average: 0.000306983
ExecutionTime = 0.33 s  ClockTime = 0 s

Time = 13

smoothSolver:  Solving for Ux, Initial residual = 0.169868, Final residual = 0.00780743, No Iterations 3
smoothSolver:  Solving for Uy, Initial residual = 0.219818, Final residual = 0.0115061, No Iterations 3
GAMG:  Solving for p, Initial residual = 0.115403, Final residual = 0.0114724, No Iterations 2
time step continuity errors : sum local = 0.0133845, global = 0.000296952, cumulative = 0.000927053
smoothSolver:  Solving for epsilon, Initial residual = 0.358365, Final residual = 0.000429142, No Iterations 1
bounding epsilon, min: -7.94596e-05 max: 0.63 average: 0.00113597
smoothSolver:  Solving for k, Initial residual = 0.0697823, Final residual = 0.0015283, No Iterations 2
bounding k, min: -2.67945e-07 max: 0.017 average: 0.000330763
ExecutionTime = 0.33 s  ClockTime = 0 s

Time = 14

smoothSolver:  Solving for Ux, Initial residual = 0.1762, Final residual = 0.0164913, No Iterations 2
smoothSolver:  Solving for Uy, Initial residual = 0.225431, Final residual = 0.0117638, No Iterations 3
GAMG:  Solving for p, Initial residual = 0.118406, Final residual = 0.010366, No Iterations 2
time step continuity errors : sum local = 0.0128063, global = 0.000354911, cumulative = 0.00128196
smoothSolver:  Solving for epsilon, Initial residual = 0.137707, Final residual = 0.00443494, No Iterations 1
bounding epsilon, min: -1.17388e-05 max: 0.63 average: 0.0020058
smoothSolver:  Solving for k, Initial residual = 0.0755149, Final residual = 0.00490855, No Iterations 1
bounding k, min: -8.32251e-06 max: 0.017 average: 0.000318013
ExecutionTime = 0.34 s  ClockTime = 0 s

Time = 15

smoothSolver:  Solving for Ux, Initial residual = 0.169932, Final residual = 0.00811721, No Iterations 3
smoothSolver:  Solving for Uy, Initial residual = 0.220702, Final residual = 0.0115272, No Iterations 3
GAMG:  Solving for p, Initial residual = 0.129911, Final residual = 0.0108263, No Iterations 2
time step continuity errors : sum local = 0.0135655, global = 0.000394605, cumulative = 0.00167657
smoothSolver:  Solving for epsilon, Initial residual = 0.368419, Final residual = 0.000422274, No Iterations 1
bounding epsilon, min: -1.6192e-05 max: 0.63 average: 0.00113898
smoothSolver:  Solving for k, Initial residual = 0.0625761, Final residual = 0.00128156, No Iterations 2
bounding k, min: -7.69734e-06 max: 0.017 average: 0.000342928
ExecutionTime = 0.36 s  ClockTime = 0 s

Time = 16

smoothSolver:  Solving for Ux, Initial residual = 0.163535, Final residual = 0.00761637, No Iterations 3
smoothSolver:  Solving for Uy, Initial residual = 0.217471, Final residual = 0.0114938, No Iterations 3
GAMG:  Solving for p, Initial residual = 0.135513, Final residual = 0.0121711, No Iterations 2
time step continuity errors : sum local = 0.0156154, global = 0.00036383, cumulative = 0.0020404
smoothSolver:  Solving for epsilon, Initial residual = 0.134372, Final residual = 0.00428376, No Iterations 1
bounding epsilon, min: -0.000706711 max: 0.63 average: 0.00198507
smoothSolver:  Solving for k, Initial residual = 0.0321399, Final residual = 0.00212625, No Iterations 1
bounding k, min: -9.83023e-05 max: 0.017 average: 0.000342013
ExecutionTime = 0.38 s  ClockTime = 0 s

Time = 17

smoothSolver:  Solving for Ux, Initial residual = 0.160826, Final residual = 0.0074563, No Iterations 3
smoothSolver:  Solving for Uy, Initial residual = 0.207727, Final residual = 0.0105885, No Iterations 3
GAMG:  Solving for p, Initial residual = 0.132478, Final residual = 0.0123212, No Iterations 2
time step continuity errors : sum local = 0.0171093, global = 0.000279588, cumulative = 0.00231999
smoothSolver:  Solving for epsilon, Initial residual = 0.181731, Final residual = 8.99515e-05, No Iterations 1
bounding epsilon, min: -1.83009e-06 max: 0.63 average: 0.00115561
smoothSolver:  Solving for k, Initial residual = 0.0250365, Final residual = 0.000493892, No Iterations 2
bounding k, min: -3.59101e-06 max: 0.017 average: 0.000377409
ExecutionTime = 0.4 s  ClockTime = 0 s

Time = 18

smoothSolver:  Solving for Ux, Initial residual = 0.151354, Final residual = 0.0150585, No Iterations 2
smoothSolver:  Solving for Uy, Initial residual = 0.194424, Final residual = 0.00971827, No Iterations 3
GAMG:  Solving for p, Initial residual = 0.134281, Final residual = 0.0125991, No Iterations 2
time step continuity errors : sum local = 0.0175678, global = 0.000690774, cumulative = 0.00301076
smoothSolver:  Solving for epsilon, Initial residual = 0.0347026, Final residual = 0.000641046, No Iterations 1
bounding epsilon, min: -6.41613e-08 max: 0.63 average: 0.00201781
smoothSolver:  Solving for k, Initial residual = 0.0252036, Final residual = 0.00181497, No Iterations 1
bounding k, min: -8.61048e-06 max: 0.017 average: 0.000376732
ExecutionTime = 0.42 s  ClockTime = 0 s

Time = 19

smoothSolver:  Solving for Ux, Initial residual = 0.150973, Final residual = 0.0148566, No Iterations 2
smoothSolver:  Solving for Uy, Initial residual = 0.177772, Final residual = 0.00892309, No Iterations 3
GAMG:  Solving for p, Initial residual = 0.12695, Final residual = 0.0107853, No Iterations 2
time step continuity errors : sum local = 0.0156357, global = 0.000705574, cumulative = 0.00371634
smoothSolver:  Solving for epsilon, Initial residual = 0.106408, Final residual = 7.25644e-05, No Iterations 1
bounding epsilon, min: -2.94486e-07 max: 0.63 average: 0.00117791
smoothSolver:  Solving for k, Initial residual = 0.0215292, Final residual = 0.00045061, No Iterations 2
bounding k, min: -1.91095e-06 max: 0.017 average: 0.000413444
ExecutionTime = 0.45 s  ClockTime = 0 s

Time = 20

smoothSolver:  Solving for Ux, Initial residual = 0.147357, Final residual = 0.0139742, No Iterations 2
smoothSolver:  Solving for Uy, Initial residual = 0.164259, Final residual = 0.00808656, No Iterations 3
GAMG:  Solving for p, Initial residual = 0.118346, Final residual = 0.00983947, No Iterations 2
time step continuity errors : sum local = 0.0144207, global = 0.000572999, cumulative = 0.00428934
smoothSolver:  Solving for epsilon, Initial residual = 0.0294834, Final residual = 0.000645577, No Iterations 1
bounding epsilon, min: -3.98985e-06 max: 0.63 average: 0.0020163
smoothSolver:  Solving for k, Initial residual = 0.00167997, Final residual = 0.000128959, No Iterations 1
bounding k, min: -4.22725e-05 max: 0.017 average: 0.000419435
ExecutionTime = 0.51 s  ClockTime = 0 s

Time = 21

smoothSolver:  Solving for Ux, Initial residual = 0.139582, Final residual = 0.0139422, No Iterations 2
smoothSolver:  Solving for Uy, Initial residual = 0.154661, Final residual = 0.00790942, No Iterations 3
GAMG:  Solving for p, Initial residual = 0.112968, Final residual = 0.00851396, No Iterations 2
time step continuity errors : sum local = 0.0143901, global = 0.000387624, cumulative = 0.00467696
smoothSolver:  Solving for epsilon, Initial residual = 0.0156174, Final residual = 3.69281e-06, No Iterations 1
bounding epsilon, min: -6.59944e-05 max: 0.63 average: 0.0012109
smoothSolver:  Solving for k, Initial residual = 0.00134767, Final residual = 2.80315e-05, No Iterations 2
bounding k, min: -5.17647e-05 max: 0.017 average: 0.000465207
ExecutionTime = 0.55 s  ClockTime = 0 s

Time = 22

smoothSolver:  Solving for Ux, Initial residual = 0.14604, Final residual = 0.00743441, No Iterations 3
smoothSolver:  Solving for Uy, Initial residual = 0.151415, Final residual = 0.00748812, No Iterations 3
GAMG:  Solving for p, Initial residual = 0.117645, Final residual = 0.00899182, No Iterations 2
time step continuity errors : sum local = 0.0137827, global = 0.000119539, cumulative = 0.0047965
smoothSolver:  Solving for epsilon, Initial residual = 0.00234095, Final residual = 1.76409e-05, No Iterations 1
bounding epsilon, min: -0.000168463 max: 0.63 average: 0.00203862
smoothSolver:  Solving for k, Initial residual = 0.00153735, Final residual = 0.000119434, No Iterations 1
bounding k, min: -2.60632e-06 max: 0.017 average: 0.000485868
ExecutionTime = 0.57 s  ClockTime = 0 s

Time = 23

smoothSolver:  Solving for Ux, Initial residual = 0.13049, Final residual = 0.00733993, No Iterations 3
smoothSolver:  Solving for Uy, Initial residual = 0.137425, Final residual = 0.00718598, No Iterations 3
GAMG:  Solving for p, Initial residual = 0.117689, Final residual = 0.0078111, No Iterations 2
time step continuity errors : sum local = 0.0128942, global = -0.000152895, cumulative = 0.0046436
smoothSolver:  Solving for epsilon, Initial residual = 0.00480002, Final residual = 4.17522e-06, No Iterations 1
bounding epsilon, min: -0.000265274 max: 0.63 average: 0.00126339
smoothSolver:  Solving for k, Initial residual = 0.00129097, Final residual = 2.74365e-05, No Iterations 2
bounding k, min: -2.46235e-05 max: 0.017 average: 0.000551537
ExecutionTime = 0.6 s  ClockTime = 0 s

Time = 24

smoothSolver:  Solving for Ux, Initial residual = 0.12926, Final residual = 0.00756726, No Iterations 3
smoothSolver:  Solving for Uy, Initial residual = 0.127011, Final residual = 0.00617749, No Iterations 3
GAMG:  Solving for p, Initial residual = 0.11104, Final residual = 0.00749881, No Iterations 2
time step continuity errors : sum local = 0.0120868, global = -0.000326302, cumulative = 0.0043173
smoothSolver:  Solving for epsilon, Initial residual = 0.00104103, Final residual = 2.67665e-05, No Iterations 1
bounding epsilon, min: -0.000111119 max: 0.63 average: 0.00209477
smoothSolver:  Solving for k, Initial residual = 5.85741e-05, Final residual = 4.59181e-06, No Iterations 1
bounding k, min: -9.71247e-06 max: 0.0191188 average: 0.000577811
ExecutionTime = 0.64 s  ClockTime = 0 s

Time = 25

smoothSolver:  Solving for Ux, Initial residual = 0.1178, Final residual = 0.00770774, No Iterations 3
smoothSolver:  Solving for Uy, Initial residual = 0.116328, Final residual = 0.00548699, No Iterations 3
GAMG:  Solving for p, Initial residual = 0.102062, Final residual = 0.00757916, No Iterations 2
time step continuity errors : sum local = 0.0121214, global = -0.000487589, cumulative = 0.00382971
smoothSolver:  Solving for epsilon, Initial residual = 0.0156218, Final residual = 1.46944e-07, No Iterations 1
bounding epsilon, min: -5.40343e-06 max: 0.63 average: 0.00131114
smoothSolver:  Solving for k, Initial residual = 4.63292e-05, Final residual = 5.38273e-06, No Iterations 1
bounding k, min: -6.29009e-06 max: 0.0193584 average: 0.000645254
ExecutionTime = 0.65 s  ClockTime = 0 s

Time = 26

smoothSolver:  Solving for Ux, Initial residual = 0.105641, Final residual = 0.00732304, No Iterations 3
smoothSolver:  Solving for Uy, Initial residual = 0.107333, Final residual = 0.00506639, No Iterations 3
GAMG:  Solving for p, Initial residual = 0.100442, Final residual = 0.00811526, No Iterations 2
time step continuity errors : sum local = 0.0127234, global = -0.000336868, cumulative = 0.00349284
smoothSolver:  Solving for epsilon, Initial residual = 0.00249286, Final residual = 7.16152e-07, No Iterations 1
bounding epsilon, min: -0.000165004 max: 0.63 average: 0.00216507
smoothSolver:  Solving for k, Initial residual = 4.16648e-05, Final residual = 3.47926e-06, No Iterations 1
bounding k, min: -6.33498e-06 max: 0.0219921 average: 0.000675457
ExecutionTime = 0.67 s  ClockTime = 0 s

Time = 27

smoothSolver:  Solving for Ux, Initial residual = 0.0951922, Final residual = 0.00714839, No Iterations 3
smoothSolver:  Solving for Uy, Initial residual = 0.106772, Final residual = 0.00525626, No Iterations 3
GAMG:  Solving for p, Initial residual = 0.100075, Final residual = 0.00787231, No Iterations 2
time step continuity errors : sum local = 0.0122644, global = 3.62634e-06, cumulative = 0.00349647
smoothSolver:  Solving for epsilon, Initial residual = 0.00551486, Final residual = 2.22618e-07, No Iterations 1
bounding epsilon, min: -4.5781e-07 max: 0.63 average: 0.00136992
smoothSolver:  Solving for k, Initial residual = 6.42088e-05, Final residual = 7.34335e-06, No Iterations 1
bounding k, min: -1.10821e-06 max: 0.0237317 average: 0.000738287
ExecutionTime = 0.68 s  ClockTime = 0 s

Time = 28

smoothSolver:  Solving for Ux, Initial residual = 0.089776, Final residual = 0.00669026, No Iterations 3
smoothSolver:  Solving for Uy, Initial residual = 0.107432, Final residual = 0.00556903, No Iterations 3
GAMG:  Solving for p, Initial residual = 0.103346, Final residual = 0.00742013, No Iterations 2
time step continuity errors : sum local = 0.0116457, global = 0.000400303, cumulative = 0.00389677
smoothSolver:  Solving for epsilon, Initial residual = 0.0010133, Final residual = 1.08916e-06, No Iterations 1
bounding epsilon, min: -0.000390008 max: 0.63 average: 0.00217102
smoothSolver:  Solving for k, Initial residual = 6.88267e-06, Final residual = 6.88267e-06, No Iterations 0
ExecutionTime = 0.7 s  ClockTime = 0 s

Time = 29

smoothSolver:  Solving for Ux, Initial residual = 0.0874782, Final residual = 0.0062354, No Iterations 3
smoothSolver:  Solving for Uy, Initial residual = 0.104226, Final residual = 0.00551306, No Iterations 3
GAMG:  Solving for p, Initial residual = 0.11018, Final residual = 0.00843459, No Iterations 2
time step continuity errors : sum local = 0.013047, global = -0.000136389, cumulative = 0.00376038
smoothSolver:  Solving for epsilon, Initial residual = 0.0160521, Final residual = 1.97048e-07, No Iterations 1
bounding epsilon, min: -1.05552e-05 max: 0.63 average: 0.00149062
smoothSolver:  Solving for k, Initial residual = 5.17378e-05, Final residual = 6.89264e-06, No Iterations 1
bounding k, min: -3.9646e-07 max: 0.0215569 average: 0.000791045
ExecutionTime = 0.71 s  ClockTime = 0 s

Time = 30

smoothSolver:  Solving for Ux, Initial residual = 0.089108, Final residual = 0.00600868, No Iterations 3
smoothSolver:  Solving for Uy, Initial residual = 0.104163, Final residual = 0.00546277, No Iterations 3
GAMG:  Solving for p, Initial residual = 0.112938, Final residual = 0.00791741, No Iterations 2
time step continuity errors : sum local = 0.0121596, global = 0.000602839, cumulative = 0.00436322
smoothSolver:  Solving for epsilon, Initial residual = 0.00351321, Final residual = 1.1886e-06, No Iterations 1
bounding epsilon, min: -4.01298e-06 max: 0.63 average: 0.00211487
smoothSolver:  Solving for k, Initial residual = 0.000104589, Final residual = 1.88246e-06, No Iterations 2
bounding k, min: -5.14359e-05 max: 0.0208489 average: 0.000825602
ExecutionTime = 0.71 s  ClockTime = 0 s

Time = 31

smoothSolver:  Solving for Ux, Initial residual = 0.0916359, Final residual = 0.00605988, No Iterations 3
smoothSolver:  Solving for Uy, Initial residual = 0.104088, Final residual = 0.00564228, No Iterations 3
GAMG:  Solving for p, Initial residual = 0.110671, Final residual = 0.00821277, No Iterations 2
time step continuity errors : sum local = 0.0126596, global = 0.00088095, cumulative = 0.00524417
smoothSolver:  Solving for epsilon, Initial residual = 0.00181465, Final residual = 3.7722e-07, No Iterations 1
bounding epsilon, min: -1.30605e-05 max: 0.63 average: 0.00151089
smoothSolver:  Solving for k, Initial residual = 0.000112902, Final residual = 2.57423e-06, No Iterations 2
bounding k, min: -2.17771e-08 max: 0.0193048 average: 0.000893767
ExecutionTime = 0.73 s  ClockTime = 0 s

Time = 32

smoothSolver:  Solving for Ux, Initial residual = 0.0980625, Final residual = 0.00625234, No Iterations 3
smoothSolver:  Solving for Uy, Initial residual = 0.112264, Final residual = 0.00585726, No Iterations 3
GAMG:  Solving for p, Initial residual = 0.107653, Final residual = 0.00815367, No Iterations 2
time step continuity errors : sum local = 0.0128937, global = 0.00103493, cumulative = 0.0062791
smoothSolver:  Solving for epsilon, Initial residual = 0.000871468, Final residual = 1.02454e-05, No Iterations 1
bounding epsilon, min: -1.07771e-05 max: 0.63 average: 0.00207988
smoothSolver:  Solving for k, Initial residual = 8.55051e-06, Final residual = 8.55051e-06, No Iterations 0
ExecutionTime = 0.75 s  ClockTime = 0 s

Time = 33

smoothSolver:  Solving for Ux, Initial residual = 0.102378, Final residual = 0.00631493, No Iterations 3
smoothSolver:  Solving for Uy, Initial residual = 0.119049, Final residual = 0.00610143, No Iterations 3
GAMG:  Solving for p, Initial residual = 0.115327, Final residual = 0.0082251, No Iterations 2
time step continuity errors : sum local = 0.012931, global = 0.00104708, cumulative = 0.00732618
smoothSolver:  Solving for epsilon, Initial residual = 0.000646511, Final residual = 2.48022e-07, No Iterations 1
bounding epsilon, min: -5.76081e-05 max: 0.63 average: 0.00158729
smoothSolver:  Solving for k, Initial residual = 6.41874e-05, Final residual = 8.72481e-06, No Iterations 1
bounding k, min: -3.29609e-05 max: 0.020715 average: 0.000943194
ExecutionTime = 0.76 s  ClockTime = 0 s

Time = 34

smoothSolver:  Solving for Ux, Initial residual = 0.100761, Final residual = 0.0062035, No Iterations 3
smoothSolver:  Solving for Uy, Initial residual = 0.12344, Final residual = 0.00603977, No Iterations 3
GAMG:  Solving for p, Initial residual = 0.116545, Final residual = 0.008397, No Iterations 2
time step continuity errors : sum local = 0.0134695, global = 0.00102451, cumulative = 0.00835069
smoothSolver:  Solving for epsilon, Initial residual = 9.17592e-05, Final residual = 7.13158e-07, No Iterations 1
bounding epsilon, min: -6.85121e-08 max: 0.63 average: 0.00197522
smoothSolver:  Solving for k, Initial residual = 4.17459e-06, Final residual = 4.17459e-06, No Iterations 0
ExecutionTime = 0.78 s  ClockTime = 0 s

Time = 35

smoothSolver:  Solving for Ux, Initial residual = 0.0965603, Final residual = 0.00577185, No Iterations 3
smoothSolver:  Solving for Uy, Initial residual = 0.126453, Final residual = 0.00580928, No Iterations 3
GAMG:  Solving for p, Initial residual = 0.109652, Final residual = 0.00788525, No Iterations 2
time step continuity errors : sum local = 0.013599, global = 0.000998754, cumulative = 0.00934944
smoothSolver:  Solving for epsilon, Initial residual = 0.0197579, Final residual = 1.2427e-07, No Iterations 1
bounding epsilon, min: -1.14851e-07 max: 0.63 average: 0.00165345
smoothSolver:  Solving for k, Initial residual = 3.36212e-05, Final residual = 4.28823e-06, No Iterations 1
bounding k, min: -2.66978e-06 max: 0.0224558 average: 0.000996712
ExecutionTime = 0.8 s  ClockTime = 0 s

Time = 36

smoothSolver:  Solving for Ux, Initial residual = 0.0937811, Final residual = 0.00512322, No Iterations 3
smoothSolver:  Solving for Uy, Initial residual = 0.124318, Final residual = 0.0119125, No Iterations 2
GAMG:  Solving for p, Initial residual = 0.103188, Final residual = 0.00734448, No Iterations 2
time step continuity errors : sum local = 0.013621, global = 0.000886031, cumulative = 0.0102355
smoothSolver:  Solving for epsilon, Initial residual = 0.0024621, Final residual = 1.88132e-07, No Iterations 1
bounding epsilon, min: -0.000100193 max: 0.63 average: 0.00185035
smoothSolver:  Solving for k, Initial residual = 3.49766e-05, Final residual = 4.52047e-06, No Iterations 1
bounding k, min: -0.000491158 max: 0.0234886 average: 0.0010512
ExecutionTime = 0.82 s  ClockTime = 0 s

Time = 37

smoothSolver:  Solving for Ux, Initial residual = 0.0892895, Final residual = 0.00452687, No Iterations 3
smoothSolver:  Solving for Uy, Initial residual = 0.122108, Final residual = 0.00605576, No Iterations 3
GAMG:  Solving for p, Initial residual = 0.100802, Final residual = 0.00818031, No Iterations 2
time step continuity errors : sum local = 0.0145431, global = 0.00097401, cumulative = 0.0112095
smoothSolver:  Solving for epsilon, Initial residual = 0.000388911, Final residual = 1.81037e-07, No Iterations 1
bounding epsilon, min: -6.91179e-05 max: 0.63 average: 0.00170428
smoothSolver:  Solving for k, Initial residual = 5.94581e-05, Final residual = 8.8636e-06, No Iterations 1
bounding k, min: -0.000190958 max: 0.0258307 average: 0.00117092
ExecutionTime = 0.83 s  ClockTime = 0 s

Time = 38

smoothSolver:  Solving for Ux, Initial residual = 0.0880445, Final residual = 0.00432842, No Iterations 3
smoothSolver:  Solving for Uy, Initial residual = 0.122115, Final residual = 0.00591804, No Iterations 3
GAMG:  Solving for p, Initial residual = 0.0973027, Final residual = 0.00802017, No Iterations 2
time step continuity errors : sum local = 0.0132555, global = 0.000810829, cumulative = 0.0120203
smoothSolver:  Solving for epsilon, Initial residual = 3.54224e-05, Final residual = 9.85832e-07, No Iterations 1
bounding epsilon, min: -0.000149059 max: 0.63 average: 0.00191845
smoothSolver:  Solving for k, Initial residual = 0.000176629, Final residual = 6.41632e-06, No Iterations 2
bounding k, min: -0.00117554 max: 0.0303616 average: 0.00129836
ExecutionTime = 0.85 s  ClockTime = 0 s

Time = 39

smoothSolver:  Solving for Ux, Initial residual = 0.0820943, Final residual = 0.00804091, No Iterations 2
smoothSolver:  Solving for Uy, Initial residual = 0.126793, Final residual = 0.0124534, No Iterations 2
GAMG:  Solving for p, Initial residual = 0.0961175, Final residual = 0.00738998, No Iterations 2
time step continuity errors : sum local = 0.0123324, global = 0.000210427, cumulative = 0.0122307
smoothSolver:  Solving for epsilon, Initial residual = 0.00207087, Final residual = 1.64151e-06, No Iterations 1
bounding epsilon, min: -6.52696e-05 max: 0.63 average: 0.0018398
smoothSolver:  Solving for k, Initial residual = 0.000417549, Final residual = 1.08248e-05, No Iterations 2
bounding k, min: -0.000372229 max: 0.0351178 average: 0.0014232
ExecutionTime = 0.87 s  ClockTime = 0 s

Time = 40

smoothSolver:  Solving for Ux, Initial residual = 0.0741168, Final residual = 0.00371226, No Iterations 3
smoothSolver:  Solving for Uy, Initial residual = 0.113013, Final residual = 0.00541472, No Iterations 3
GAMG:  Solving for p, Initial residual = 0.0969896, Final residual = 0.00771738, No Iterations 2
time step continuity errors : sum local = 0.0129312, global = 0.000723334, cumulative = 0.0129541
smoothSolver:  Solving for epsilon, Initial residual = 0.00123774, Final residual = 1.50895e-05, No Iterations 1
bounding epsilon, min: -4.09147e-05 max: 0.63 average: 0.00203492
smoothSolver:  Solving for k, Initial residual = 0.000175955, Final residual = 3.98461e-06, No Iterations 2
bounding k, min: -1.58041e-10 max: 0.0388363 average: 0.0015049
ExecutionTime = 0.94 s  ClockTime = 1 s

Time = 41

smoothSolver:  Solving for Ux, Initial residual = 0.0707289, Final residual = 0.00378394, No Iterations 3
smoothSolver:  Solving for Uy, Initial residual = 0.102079, Final residual = 0.00496826, No Iterations 3
GAMG:  Solving for p, Initial residual = 0.0936675, Final residual = 0.00736644, No Iterations 2
time step continuity errors : sum local = 0.0122837, global = 0.000126457, cumulative = 0.0130805
smoothSolver:  Solving for epsilon, Initial residual = 0.000318952, Final residual = 6.73673e-07, No Iterations 1
bounding epsilon, min: -5.89059e-06 max: 0.63 average: 0.00194835
smoothSolver:  Solving for k, Initial residual = 0.000195795, Final residual = 4.65173e-06, No Iterations 2
bounding k, min: 1.58196e-16 max: 0.0403621 average: 0.0016063
ExecutionTime = 0.95 s  ClockTime = 1 s

Time = 42

smoothSolver:  Solving for Ux, Initial residual = 0.0674091, Final residual = 0.00370068, No Iterations 3
smoothSolver:  Solving for Uy, Initial residual = 0.0931882, Final residual = 0.00928784, No Iterations 2
GAMG:  Solving for p, Initial residual = 0.0940139, Final residual = 0.00693715, No Iterations 2
time step continuity errors : sum local = 0.0113725, global = 7.34755e-05, cumulative = 0.013154
smoothSolver:  Solving for epsilon, Initial residual = 3.39258e-05, Final residual = 1.77748e-06, No Iterations 1
bounding epsilon, min: -2.52001e-07 max: 0.63 average: 0.00210615
smoothSolver:  Solving for k, Initial residual = 0.000215626, Final residual = 5.31027e-06, No Iterations 2
bounding k, min: -4.64732e-10 max: 0.0429465 average: 0.00168972
ExecutionTime = 0.98 s  ClockTime = 1 s

Time = 43

smoothSolver:  Solving for Ux, Initial residual = 0.0618629, Final residual = 0.00350946, No Iterations 3
smoothSolver:  Solving for Uy, Initial residual = 0.0845139, Final residual = 0.00423257, No Iterations 3
GAMG:  Solving for p, Initial residual = 0.0906615, Final residual = 0.00597043, No Iterations 2
time step continuity errors : sum local = 0.00945942, global = 2.81888e-05, cumulative = 0.0131822
smoothSolver:  Solving for epsilon, Initial residual = 0.000376804, Final residual = 2.94639e-06, No Iterations 1
bounding epsilon, min: -7.56578e-05 max: 0.63 average: 0.00203932
smoothSolver:  Solving for k, Initial residual = 0.000635953, Final residual = 1.69195e-05, No Iterations 2
bounding k, min: -1.12518e-07 max: 0.0455283 average: 0.00177352
ExecutionTime = 1.01 s  ClockTime = 1 s

Time = 44

smoothSolver:  Solving for Ux, Initial residual = 0.0560695, Final residual = 0.00306004, No Iterations 3
smoothSolver:  Solving for Uy, Initial residual = 0.0765954, Final residual = 0.00370924, No Iterations 3
GAMG:  Solving for p, Initial residual = 0.0854496, Final residual = 0.00614235, No Iterations 2
time step continuity errors : sum local = 0.00931191, global = 1.35383e-05, cumulative = 0.0131957
smoothSolver:  Solving for epsilon, Initial residual = 0.000100813, Final residual = 5.64274e-06, No Iterations 1
bounding epsilon, min: -0.000141593 max: 0.63 average: 0.00214669
smoothSolver:  Solving for k, Initial residual = 0.00100915, Final residual = 2.67761e-05, No Iterations 2
bounding k, min: -1.98151e-11 max: 0.0451087 average: 0.00183674
ExecutionTime = 1.03 s  ClockTime = 1 s

Time = 45

smoothSolver:  Solving for Ux, Initial residual = 0.0505473, Final residual = 0.00269125, No Iterations 3
smoothSolver:  Solving for Uy, Initial residual = 0.0704192, Final residual = 0.00351731, No Iterations 3
GAMG:  Solving for p, Initial residual = 0.0796037, Final residual = 0.00529197, No Iterations 2
time step continuity errors : sum local = 0.00791984, global = 0.000326398, cumulative = 0.0135221
smoothSolver:  Solving for epsilon, Initial residual = 0.000721805, Final residual = 8.97478e-06, No Iterations 1
bounding epsilon, min: -0.000116426 max: 0.63 average: 0.00210562
smoothSolver:  Solving for k, Initial residual = 0.00253816, Final residual = 6.54351e-05, No Iterations 2
bounding k, min: -8.66822e-07 max: 0.0462886 average: 0.00190182
ExecutionTime = 1.06 s  ClockTime = 1 s

Time = 46

smoothSolver:  Solving for Ux, Initial residual = 0.0466354, Final residual = 0.00250821, No Iterations 3
smoothSolver:  Solving for Uy, Initial residual = 0.0653823, Final residual = 0.00331474, No Iterations 3
GAMG:  Solving for p, Initial residual = 0.0709566, Final residual = 0.00503839, No Iterations 2
time step continuity errors : sum local = 0.00760832, global = 0.000373207, cumulative = 0.0138953
smoothSolver:  Solving for epsilon, Initial residual = 0.0211593, Final residual = 0.000955388, No Iterations 1
bounding epsilon, min: -7.76431e-05 max: 0.63 average: 0.00216008
smoothSolver:  Solving for k, Initial residual = 0.00449082, Final residual = 0.000108412, No Iterations 2
bounding k, min: -4.2493e-08 max: 0.0492526 average: 0.00196958
ExecutionTime = 1.07 s  ClockTime = 1 s

Time = 47

smoothSolver:  Solving for Ux, Initial residual = 0.0446473, Final residual = 0.00243515, No Iterations 3
smoothSolver:  Solving for Uy, Initial residual = 0.0606825, Final residual = 0.00305336, No Iterations 3
GAMG:  Solving for p, Initial residual = 0.0707458, Final residual = 0.00478477, No Iterations 2
time step continuity errors : sum local = 0.00719687, global = 0.00039859, cumulative = 0.0142939
smoothSolver:  Solving for epsilon, Initial residual = 0.00358416, Final residual = 4.46227e-05, No Iterations 1
bounding epsilon, min: -4.69685e-06 max: 0.63 average: 0.00216898
smoothSolver:  Solving for k, Initial residual = 0.00881048, Final residual = 0.000214589, No Iterations 2
bounding k, min: -6.44841e-11 max: 0.0494608 average: 0.00204421
ExecutionTime = 1.11 s  ClockTime = 1 s

Time = 48

smoothSolver:  Solving for Ux, Initial residual = 0.0451694, Final residual = 0.00276788, No Iterations 3
smoothSolver:  Solving for Uy, Initial residual = 0.059821, Final residual = 0.00297251, No Iterations 3
GAMG:  Solving for p, Initial residual = 0.0754057, Final residual = 0.00524556, No Iterations 2
time step continuity errors : sum local = 0.00792442, global = 2.92282e-05, cumulative = 0.0143232
smoothSolver:  Solving for epsilon, Initial residual = 0.00312317, Final residual = 0.000102049, No Iterations 1
bounding epsilon, min: -1.24184e-05 max: 0.63 average: 0.00216425
smoothSolver:  Solving for k, Initial residual = 0.0134119, Final residual = 0.000304677, No Iterations 2
bounding k, min: -3.39212e-07 max: 0.0493874 average: 0.00212419
ExecutionTime = 1.12 s  ClockTime = 1 s

Time = 49

smoothSolver:  Solving for Ux, Initial residual = 0.0474625, Final residual = 0.00301545, No Iterations 3
smoothSolver:  Solving for Uy, Initial residual = 0.0620241, Final residual = 0.00313904, No Iterations 3
GAMG:  Solving for p, Initial residual = 0.0812045, Final residual = 0.00563483, No Iterations 2
time step continuity errors : sum local = 0.00850544, global = 0.000176394, cumulative = 0.0144995
smoothSolver:  Solving for epsilon, Initial residual = 0.0083711, Final residual = 0.000142529, No Iterations 1
bounding epsilon, min: -9.72476e-05 max: 0.63 average: 0.00225578
smoothSolver:  Solving for k, Initial residual = 0.0245938, Final residual = 0.000532297, No Iterations 2
bounding k, min: -7.15343e-08 max: 0.0478041 average: 0.00221902
ExecutionTime = 1.16 s  ClockTime = 1 s

Time = 50

smoothSolver:  Solving for Ux, Initial residual = 0.0559342, Final residual = 0.00329946, No Iterations 3
smoothSolver:  Solving for Uy, Initial residual = 0.0676795, Final residual = 0.00338982, No Iterations 3
GAMG:  Solving for p, Initial residual = 0.0824674, Final residual = 0.00550621, No Iterations 2
time step continuity errors : sum local = 0.00801883, global = 0.00016461, cumulative = 0.0146642
smoothSolver:  Solving for epsilon, Initial residual = 0.0412204, Final residual = 0.00101645, No Iterations 1
bounding epsilon, min: -2.19574e-05 max: 0.63 average: 0.00218997
smoothSolver:  Solving for k, Initial residual = 0.00506236, Final residual = 0.000118702, No Iterations 2
bounding k, min: -6.00817e-11 max: 0.0459916 average: 0.00232748
ExecutionTime = 1.17 s  ClockTime = 1 s

Time = 51

smoothSolver:  Solving for Ux, Initial residual = 0.0527434, Final residual = 0.00342842, No Iterations 3
smoothSolver:  Solving for Uy, Initial residual = 0.070374, Final residual = 0.0035561, No Iterations 3
GAMG:  Solving for p, Initial residual = 0.0859189, Final residual = 0.00551457, No Iterations 2
time step continuity errors : sum local = 0.0081138, global = 5.00257e-05, cumulative = 0.0147142
smoothSolver:  Solving for epsilon, Initial residual = 0.00137911, Final residual = 2.85197e-05, No Iterations 1
bounding epsilon, min: -0.000373856 max: 0.63 average: 0.0023808
smoothSolver:  Solving for k, Initial residual = 0.006199, Final residual = 0.000132215, No Iterations 2
bounding k, min: -5.27768e-05 max: 0.0436811 average: 0.00241543
ExecutionTime = 1.2 s  ClockTime = 1 s

Time = 52

smoothSolver:  Solving for Ux, Initial residual = 0.053993, Final residual = 0.00344713, No Iterations 3
smoothSolver:  Solving for Uy, Initial residual = 0.0698984, Final residual = 0.00373882, No Iterations 3
GAMG:  Solving for p, Initial residual = 0.0852267, Final residual = 0.00591773, No Iterations 2
time step continuity errors : sum local = 0.00849838, global = 0.000194799, cumulative = 0.014909
smoothSolver:  Solving for epsilon, Initial residual = 0.00471209, Final residual = 7.35212e-05, No Iterations 1
bounding epsilon, min: -6.17783e-05 max: 0.63 average: 0.0022271
smoothSolver:  Solving for k, Initial residual = 0.0153116, Final residual = 0.000328028, No Iterations 2
bounding k, min: -7.96479e-08 max: 0.0413419 average: 0.00249993
ExecutionTime = 1.22 s  ClockTime = 1 s

Time = 53

smoothSolver:  Solving for Ux, Initial residual = 0.055801, Final residual = 0.00324483, No Iterations 3
smoothSolver:  Solving for Uy, Initial residual = 0.0750568, Final residual = 0.00403405, No Iterations 3
GAMG:  Solving for p, Initial residual = 0.089519, Final residual = 0.00628468, No Iterations 2
time step continuity errors : sum local = 0.00913085, global = 0.000236372, cumulative = 0.0151454
smoothSolver:  Solving for epsilon, Initial residual = 0.00470238, Final residual = 0.000210758, No Iterations 1
bounding epsilon, min: -4.8152e-05 max: 0.63 average: 0.00251939
smoothSolver:  Solving for k, Initial residual = 0.0179272, Final residual = 0.000381393, No Iterations 2
bounding k, min: -0.000217502 max: 0.0428728 average: 0.00255862
ExecutionTime = 1.23 s  ClockTime = 1 s

Time = 54

smoothSolver:  Solving for Ux, Initial residual = 0.0564414, Final residual = 0.00311182, No Iterations 3
smoothSolver:  Solving for Uy, Initial residual = 0.0771732, Final residual = 0.00422976, No Iterations 3
GAMG:  Solving for p, Initial residual = 0.0925064, Final residual = 0.00650659, No Iterations 2
time step continuity errors : sum local = 0.00935655, global = -3.14429e-05, cumulative = 0.0151139
smoothSolver:  Solving for epsilon, Initial residual = 0.0176217, Final residual = 0.000135526, No Iterations 1
bounding epsilon, min: -5.94166e-05 max: 0.63 average: 0.0022676
smoothSolver:  Solving for k, Initial residual = 0.0241551, Final residual = 0.000543748, No Iterations 2
bounding k, min: -5.28573e-07 max: 0.0427568 average: 0.0026243
ExecutionTime = 1.26 s  ClockTime = 1 s

Time = 55

smoothSolver:  Solving for Ux, Initial residual = 0.0564572, Final residual = 0.00293494, No Iterations 3
smoothSolver:  Solving for Uy, Initial residual = 0.0798594, Final residual = 0.0044661, No Iterations 3
GAMG:  Solving for p, Initial residual = 0.0883026, Final residual = 0.00611748, No Iterations 2
time step continuity errors : sum local = 0.00945935, global = -0.000151101, cumulative = 0.0149628
smoothSolver:  Solving for epsilon, Initial residual = 0.00901015, Final residual = 0.000535652, No Iterations 1
bounding epsilon, min: -1.49466e-05 max: 0.63 average: 0.00260082
smoothSolver:  Solving for k, Initial residual = 0.00861361, Final residual = 0.000178861, No Iterations 2
bounding k, min: -0.00145286 max: 0.0444846 average: 0.00268853
ExecutionTime = 1.28 s  ClockTime = 1 s

Time = 56

smoothSolver:  Solving for Ux, Initial residual = 0.0596091, Final residual = 0.00300632, No Iterations 3
smoothSolver:  Solving for Uy, Initial residual = 0.0833954, Final residual = 0.00437244, No Iterations 3
GAMG:  Solving for p, Initial residual = 0.0912855, Final residual = 0.00643688, No Iterations 2
time step continuity errors : sum local = 0.00934115, global = -0.000203476, cumulative = 0.0147593
smoothSolver:  Solving for epsilon, Initial residual = 0.00790572, Final residual = 4.13814e-05, No Iterations 1
bounding epsilon, min: -1.51963e-07 max: 0.63 average: 0.0023133
smoothSolver:  Solving for k, Initial residual = 0.00968375, Final residual = 0.000199467, No Iterations 2
ExecutionTime = 1.31 s  ClockTime = 1 s

Time = 57

smoothSolver:  Solving for Ux, Initial residual = 0.0590905, Final residual = 0.0029816, No Iterations 3
smoothSolver:  Solving for Uy, Initial residual = 0.0845176, Final residual = 0.00427757, No Iterations 3
GAMG:  Solving for p, Initial residual = 0.0920237, Final residual = 0.00593711, No Iterations 2
time step continuity errors : sum local = 0.00915274, global = -0.000215035, cumulative = 0.0145443
smoothSolver:  Solving for epsilon, Initial residual = 0.00158532, Final residual = 8.63637e-05, No Iterations 1
bounding epsilon, min: -4.29094e-05 max: 0.63 average: 0.00263422
smoothSolver:  Solving for k, Initial residual = 0.000342138, Final residual = 7.03713e-06, No Iterations 2
bounding k, min: -8.84348e-06 max: 0.0474 average: 0.00286553
ExecutionTime = 1.34 s  ClockTime = 1 s

Time = 58

smoothSolver:  Solving for Ux, Initial residual = 0.0645501, Final residual = 0.00309449, No Iterations 3
smoothSolver:  Solving for Uy, Initial residual = 0.0912895, Final residual = 0.00415863, No Iterations 3
GAMG:  Solving for p, Initial residual = 0.0922641, Final residual = 0.00588289, No Iterations 2
time step continuity errors : sum local = 0.00882443, global = -0.00018225, cumulative = 0.014362
smoothSolver:  Solving for epsilon, Initial residual = 0.00025451, Final residual = 1.22118e-06, No Iterations 1
bounding epsilon, min: -2.94416e-05 max: 0.63 average: 0.00237533
smoothSolver:  Solving for k, Initial residual = 0.000339989, Final residual = 6.78613e-06, No Iterations 2
bounding k, min: -8.68783e-06 max: 0.0535876 average: 0.00294914
ExecutionTime = 1.36 s  ClockTime = 1 s

Time = 59

smoothSolver:  Solving for Ux, Initial residual = 0.0649133, Final residual = 0.00629383, No Iterations 2
smoothSolver:  Solving for Uy, Initial residual = 0.088229, Final residual = 0.0041537, No Iterations 3
GAMG:  Solving for p, Initial residual = 0.0903314, Final residual = 0.00552682, No Iterations 2
time step continuity errors : sum local = 0.00839344, global = -0.000251964, cumulative = 0.0141101
smoothSolver:  Solving for epsilon, Initial residual = 4.04714e-05, Final residual = 2.26179e-06, No Iterations 1
bounding epsilon, min: -0.000220184 max: 0.63 average: 0.00266286
smoothSolver:  Solving for k, Initial residual = 0.000238157, Final residual = 4.48104e-06, No Iterations 2
bounding k, min: -0.000286677 max: 0.0506011 average: 0.00303238
ExecutionTime = 1.37 s  ClockTime = 1 s

Time = 60

smoothSolver:  Solving for Ux, Initial residual = 0.0738162, Final residual = 0.00681387, No Iterations 2
smoothSolver:  Solving for Uy, Initial residual = 0.0960205, Final residual = 0.00449397, No Iterations 3
GAMG:  Solving for p, Initial residual = 0.092685, Final residual = 0.00523535, No Iterations 2
time step continuity errors : sum local = 0.00770959, global = -0.0001543, cumulative = 0.0139558
smoothSolver:  Solving for epsilon, Initial residual = 0.000756794, Final residual = 1.61425e-06, No Iterations 1
bounding epsilon, min: -4.25889e-05 max: 0.63 average: 0.00241516
smoothSolver:  Solving for k, Initial residual = 0.00056032, Final residual = 1.13999e-05, No Iterations 2
bounding k, min: -0.000118089 max: 0.0526167 average: 0.00315716
ExecutionTime = 1.5 s  ClockTime = 1 s

Time = 61

smoothSolver:  Solving for Ux, Initial residual = 0.063774, Final residual = 0.0033452, No Iterations 3
smoothSolver:  Solving for Uy, Initial residual = 0.101193, Final residual = 0.0101132, No Iterations 2
GAMG:  Solving for p, Initial residual = 0.0908727, Final residual = 0.00494771, No Iterations 2
time step continuity errors : sum local = 0.0071935, global = -0.000293329, cumulative = 0.0136625
smoothSolver:  Solving for epsilon, Initial residual = 0.00012533, Final residual = 4.25665e-06, No Iterations 1
bounding epsilon, min: -1.04935e-05 max: 0.63 average: 0.00268311
smoothSolver:  Solving for k, Initial residual = 0.000699457, Final residual = 2.05763e-05, No Iterations 2
bounding k, min: -1.23942e-05 max: 0.0488223 average: 0.00330296
ExecutionTime = 1.51 s  ClockTime = 1 s

Time = 62

smoothSolver:  Solving for Ux, Initial residual = 0.0584229, Final residual = 0.00314539, No Iterations 3
smoothSolver:  Solving for Uy, Initial residual = 0.0910417, Final residual = 0.00484808, No Iterations 3
GAMG:  Solving for p, Initial residual = 0.0875601, Final residual = 0.00491359, No Iterations 2
time step continuity errors : sum local = 0.00695146, global = -0.000377374, cumulative = 0.0132851
smoothSolver:  Solving for epsilon, Initial residual = 0.000554457, Final residual = 2.41692e-06, No Iterations 1
bounding epsilon, min: -2.46444e-05 max: 0.63 average: 0.00249623
smoothSolver:  Solving for k, Initial residual = 0.000727732, Final residual = 1.93676e-05, No Iterations 2
bounding k, min: -0.000276723 max: 0.049475 average: 0.00349732
ExecutionTime = 1.55 s  ClockTime = 1 s

Time = 63

smoothSolver:  Solving for Ux, Initial residual = 0.0532391, Final residual = 0.00311709, No Iterations 3
smoothSolver:  Solving for Uy, Initial residual = 0.0877452, Final residual = 0.00479553, No Iterations 3
GAMG:  Solving for p, Initial residual = 0.0804113, Final residual = 0.00442267, No Iterations 2
time step continuity errors : sum local = 0.0067157, global = -0.000340541, cumulative = 0.0129445
smoothSolver:  Solving for epsilon, Initial residual = 0.000269164, Final residual = 1.38419e-05, No Iterations 1
bounding epsilon, min: -5.83374e-05 max: 0.63 average: 0.00274165
smoothSolver:  Solving for k, Initial residual = 0.000207849, Final residual = 5.30202e-06, No Iterations 2
bounding k, min: -4.59784e-09 max: 0.0470656 average: 0.00369262
ExecutionTime = 1.56 s  ClockTime = 1 s

Time = 64

smoothSolver:  Solving for Ux, Initial residual = 0.0542987, Final residual = 0.00322036, No Iterations 3
smoothSolver:  Solving for Uy, Initial residual = 0.0863777, Final residual = 0.00444401, No Iterations 3
GAMG:  Solving for p, Initial residual = 0.0806025, Final residual = 0.00444612, No Iterations 2
time step continuity errors : sum local = 0.00622879, global = -0.000346918, cumulative = 0.0125976
smoothSolver:  Solving for epsilon, Initial residual = 0.00197077, Final residual = 9.54526e-07, No Iterations 1
bounding epsilon, min: -1.61496e-05 max: 0.63 average: 0.0026131
smoothSolver:  Solving for k, Initial residual = 0.000247664, Final residual = 6.27358e-06, No Iterations 2
bounding k, min: -2.50097e-05 max: 0.0450943 average: 0.00392223
ExecutionTime = 1.58 s  ClockTime = 1 s

Time = 65

smoothSolver:  Solving for Ux, Initial residual = 0.0494976, Final residual = 0.00314591, No Iterations 3
smoothSolver:  Solving for Uy, Initial residual = 0.0797043, Final residual = 0.00441793, No Iterations 3
GAMG:  Solving for p, Initial residual = 0.0792847, Final residual = 0.00395337, No Iterations 2
time step continuity errors : sum local = 0.00592359, global = -0.000305237, cumulative = 0.0122924
smoothSolver:  Solving for epsilon, Initial residual = 0.000212605, Final residual = 1.48552e-06, No Iterations 1
bounding epsilon, min: -1.14504e-06 max: 0.63 average: 0.00283561
smoothSolver:  Solving for k, Initial residual = 0.000240889, Final residual = 5.65366e-06, No Iterations 2
bounding k, min: 1.23857e-16 max: 0.0456942 average: 0.00413778
ExecutionTime = 1.58 s  ClockTime = 1 s

Time = 66

smoothSolver:  Solving for Ux, Initial residual = 0.0520783, Final residual = 0.00313224, No Iterations 3
smoothSolver:  Solving for Uy, Initial residual = 0.0808381, Final residual = 0.00412121, No Iterations 3
GAMG:  Solving for p, Initial residual = 0.0782709, Final residual = 0.00403442, No Iterations 2
time step continuity errors : sum local = 0.00560247, global = -0.000217183, cumulative = 0.0120752
smoothSolver:  Solving for epsilon, Initial residual = 0.000227174, Final residual = 8.48636e-07, No Iterations 1
bounding epsilon, min: -1.08336e-06 max: 0.63 average: 0.00275796
smoothSolver:  Solving for k, Initial residual = 0.000231304, Final residual = 5.21477e-06, No Iterations 2
bounding k, min: -4.04816e-07 max: 0.0413984 average: 0.00436413
ExecutionTime = 1.6 s  ClockTime = 1 s

Time = 67

smoothSolver:  Solving for Ux, Initial residual = 0.0477986, Final residual = 0.00303596, No Iterations 3
smoothSolver:  Solving for Uy, Initial residual = 0.077748, Final residual = 0.00415234, No Iterations 3
GAMG:  Solving for p, Initial residual = 0.0798217, Final residual = 0.00362146, No Iterations 2
time step continuity errors : sum local = 0.00520197, global = -0.000128123, cumulative = 0.0119471
smoothSolver:  Solving for epsilon, Initial residual = 7.26492e-05, Final residual = 3.22666e-06, No Iterations 1
bounding epsilon, min: -2.7695e-07 max: 0.63 average: 0.00295285
smoothSolver:  Solving for k, Initial residual = 0.000564052, Final residual = 1.21567e-05, No Iterations 2
bounding k, min: -3.05399e-09 max: 0.0477666 average: 0.00459345
ExecutionTime = 1.61 s  ClockTime = 1 s

Time = 68

smoothSolver:  Solving for Ux, Initial residual = 0.0475244, Final residual = 0.00299691, No Iterations 3
smoothSolver:  Solving for Uy, Initial residual = 0.0749553, Final residual = 0.00406421, No Iterations 3
GAMG:  Solving for p, Initial residual = 0.075972, Final residual = 0.00356574, No Iterations 2
time step continuity errors : sum local = 0.00504482, global = -4.51578e-05, cumulative = 0.0119019
smoothSolver:  Solving for epsilon, Initial residual = 0.00099383, Final residual = 5.75107e-06, No Iterations 1
bounding epsilon, min: -6.26992e-07 max: 0.63 average: 0.00292044
smoothSolver:  Solving for k, Initial residual = 0.00150797, Final residual = 3.18833e-05, No Iterations 2
bounding k, min: -0.000587886 max: 0.036907 average: 0.00481846
ExecutionTime = 1.62 s  ClockTime = 1 s

Time = 69

smoothSolver:  Solving for Ux, Initial residual = 0.0466883, Final residual = 0.00293792, No Iterations 3
smoothSolver:  Solving for Uy, Initial residual = 0.0747266, Final residual = 0.00408898, No Iterations 3
GAMG:  Solving for p, Initial residual = 0.077257, Final residual = 0.003682, No Iterations 2
time step continuity errors : sum local = 0.00499506, global = 3.1066e-05, cumulative = 0.011933
smoothSolver:  Solving for epsilon, Initial residual = 0.000622233, Final residual = 2.76414e-05, No Iterations 1
bounding epsilon, min: -7.40692e-07 max: 0.63 average: 0.00305433
smoothSolver:  Solving for k, Initial residual = 0.00167444, Final residual = 3.50374e-05, No Iterations 2
bounding k, min: -4.3811e-09 max: 0.0414143 average: 0.00506054
ExecutionTime = 1.64 s  ClockTime = 1 s

Time = 70

smoothSolver:  Solving for Ux, Initial residual = 0.0435377, Final residual = 0.00276793, No Iterations 3
smoothSolver:  Solving for Uy, Initial residual = 0.0737699, Final residual = 0.00420704, No Iterations 3
GAMG:  Solving for p, Initial residual = 0.0750157, Final residual = 0.00331433, No Iterations 2
time step continuity errors : sum local = 0.00471979, global = 0.00012331, cumulative = 0.0120563
smoothSolver:  Solving for epsilon, Initial residual = 0.00248057, Final residual = 1.24784e-05, No Iterations 1
bounding epsilon, min: -6.49879e-07 max: 0.63 average: 0.00309677
smoothSolver:  Solving for k, Initial residual = 0.00290656, Final residual = 6.2559e-05, No Iterations 2
bounding k, min: -1.16522e-08 max: 0.0383347 average: 0.00529733
ExecutionTime = 1.65 s  ClockTime = 1 s

Time = 71

smoothSolver:  Solving for Ux, Initial residual = 0.0448075, Final residual = 0.00268897, No Iterations 3
smoothSolver:  Solving for Uy, Initial residual = 0.0741898, Final residual = 0.00421675, No Iterations 3
GAMG:  Solving for p, Initial residual = 0.0756086, Final residual = 0.00357029, No Iterations 2
time step continuity errors : sum local = 0.00469058, global = 0.00016374, cumulative = 0.01222
smoothSolver:  Solving for epsilon, Initial residual = 0.00116776, Final residual = 3.54075e-05, No Iterations 1
bounding epsilon, min: -3.67736e-07 max: 0.63 average: 0.00316298
smoothSolver:  Solving for k, Initial residual = 1.57905e-05, Final residual = 1.7836e-06, No Iterations 1
bounding k, min: -1.83382e-06 max: 0.0369172 average: 0.00553363
ExecutionTime = 1.67 s  ClockTime = 1 s

Time = 72

smoothSolver:  Solving for Ux, Initial residual = 0.0415199, Final residual = 0.0025014, No Iterations 3
smoothSolver:  Solving for Uy, Initial residual = 0.07249, Final residual = 0.00440449, No Iterations 3
GAMG:  Solving for p, Initial residual = 0.0776876, Final residual = 0.00349658, No Iterations 2
time step continuity errors : sum local = 0.00454422, global = 0.000249593, cumulative = 0.0124696
smoothSolver:  Solving for epsilon, Initial residual = 0.0042639, Final residual = 9.29838e-08, No Iterations 1
bounding epsilon, min: -1.39841e-07 max: 0.63 average: 0.00327329
smoothSolver:  Solving for k, Initial residual = 1.93114e-05, Final residual = 2.28515e-06, No Iterations 1
bounding k, min: -9.18839e-06 max: 0.0405328 average: 0.00577633
ExecutionTime = 1.68 s  ClockTime = 1 s

Time = 73

smoothSolver:  Solving for Ux, Initial residual = 0.0402301, Final residual = 0.00242225, No Iterations 3
smoothSolver:  Solving for Uy, Initial residual = 0.0721296, Final residual = 0.00458529, No Iterations 3
GAMG:  Solving for p, Initial residual = 0.0757182, Final residual = 0.00345722, No Iterations 2
time step continuity errors : sum local = 0.00463778, global = -4.58832e-05, cumulative = 0.0124237
smoothSolver:  Solving for epsilon, Initial residual = 0.000457017, Final residual = 1.07261e-07, No Iterations 1
bounding epsilon, min: -9.07684e-07 max: 0.63 average: 0.00327078
smoothSolver:  Solving for k, Initial residual = 6.46996e-06, Final residual = 6.46996e-06, No Iterations 0
ExecutionTime = 1.68 s  ClockTime = 1 s

Time = 74

smoothSolver:  Solving for Ux, Initial residual = 0.0411115, Final residual = 0.00227166, No Iterations 3
smoothSolver:  Solving for Uy, Initial residual = 0.0739089, Final residual = 0.00440765, No Iterations 3
GAMG:  Solving for p, Initial residual = 0.0791585, Final residual = 0.00364745, No Iterations 2
time step continuity errors : sum local = 0.00458459, global = 0.000144224, cumulative = 0.012568
smoothSolver:  Solving for epsilon, Initial residual = 0.00268158, Final residual = 1.93296e-07, No Iterations 1
bounding epsilon, min: -1.82636e-10 max: 0.63 average: 0.00327304
smoothSolver:  Solving for k, Initial residual = 6.075e-05, Final residual = 7.25918e-06, No Iterations 1
bounding k, min: -1.30146e-06 max: 0.0389074 average: 0.00596447
ExecutionTime = 1.7 s  ClockTime = 1 s

Time = 75

smoothSolver:  Solving for Ux, Initial residual = 0.0378183, Final residual = 0.00214687, No Iterations 3
smoothSolver:  Solving for Uy, Initial residual = 0.0740928, Final residual = 0.00453778, No Iterations 3
GAMG:  Solving for p, Initial residual = 0.0802885, Final residual = 0.00358541, No Iterations 2
time step continuity errors : sum local = 0.00457037, global = 0.000186445, cumulative = 0.0127544
smoothSolver:  Solving for epsilon, Initial residual = 0.000349869, Final residual = 3.54678e-07, No Iterations 1
bounding epsilon, min: -9.25634e-08 max: 0.63 average: 0.00328673
smoothSolver:  Solving for k, Initial residual = 7.98575e-05, Final residual = 9.95496e-06, No Iterations 1
bounding k, min: -1.87116e-06 max: 0.0400028 average: 0.00618955
ExecutionTime = 1.72 s  ClockTime = 1 s

Time = 76

smoothSolver:  Solving for Ux, Initial residual = 0.0379548, Final residual = 0.00209622, No Iterations 3
smoothSolver:  Solving for Uy, Initial residual = 0.0739466, Final residual = 0.00447196, No Iterations 3
GAMG:  Solving for p, Initial residual = 0.0786562, Final residual = 0.00369598, No Iterations 2
time step continuity errors : sum local = 0.00441441, global = 0.000139784, cumulative = 0.0128942
smoothSolver:  Solving for epsilon, Initial residual = 9.5042e-05, Final residual = 1.35706e-06, No Iterations 1
smoothSolver:  Solving for k, Initial residual = 0.000268712, Final residual = 6.90956e-06, No Iterations 2
bounding k, min: -2.37188e-10 max: 0.0410857 average: 0.00640677
ExecutionTime = 1.73 s  ClockTime = 1 s

Time = 77

smoothSolver:  Solving for Ux, Initial residual = 0.0368314, Final residual = 0.00209891, No Iterations 3
smoothSolver:  Solving for Uy, Initial residual = 0.0730018, Final residual = 0.00444653, No Iterations 3
GAMG:  Solving for p, Initial residual = 0.0793947, Final residual = 0.00377072, No Iterations 2
time step continuity errors : sum local = 0.00436479, global = 0.000118894, cumulative = 0.0130131
smoothSolver:  Solving for epsilon, Initial residual = 0.0037189, Final residual = 5.33077e-05, No Iterations 1
smoothSolver:  Solving for k, Initial residual = 0.00134594, Final residual = 3.5154e-05, No Iterations 2
ExecutionTime = 1.73 s  ClockTime = 1 s

Time = 78

smoothSolver:  Solving for Ux, Initial residual = 0.0345691, Final residual = 0.00202268, No Iterations 3
smoothSolver:  Solving for Uy, Initial residual = 0.0713418, Final residual = 0.00437199, No Iterations 3
GAMG:  Solving for p, Initial residual = 0.0779741, Final residual = 0.00359187, No Iterations 2
time step continuity errors : sum local = 0.00439418, global = 7.85041e-05, cumulative = 0.0130916
smoothSolver:  Solving for epsilon, Initial residual = 0.00121007, Final residual = 1.55588e-05, No Iterations 1
smoothSolver:  Solving for k, Initial residual = 0.00109493, Final residual = 2.82363e-05, No Iterations 2
bounding k, min: 7.86049e-16 max: 0.0431205 average: 0.00692015
ExecutionTime = 1.75 s  ClockTime = 1 s

Time = 79

smoothSolver:  Solving for Ux, Initial residual = 0.0364134, Final residual = 0.00202284, No Iterations 3
smoothSolver:  Solving for Uy, Initial residual = 0.0715057, Final residual = 0.00420236, No Iterations 3
GAMG:  Solving for p, Initial residual = 0.0786083, Final residual = 0.00398778, No Iterations 2
time step continuity errors : sum local = 0.00430761, global = -4.81251e-05, cumulative = 0.0130435
smoothSolver:  Solving for epsilon, Initial residual = 0.00198948, Final residual = 6.7116e-06, No Iterations 1
smoothSolver:  Solving for k, Initial residual = 0.000475207, Final residual = 1.35427e-05, No Iterations 2
bounding k, min: 1.64147e-16 max: 0.0436142 average: 0.00721322
ExecutionTime = 1.76 s  ClockTime = 1 s

Time = 80

smoothSolver:  Solving for Ux, Initial residual = 0.0313057, Final residual = 0.00191612, No Iterations 3
smoothSolver:  Solving for Uy, Initial residual = 0.0695466, Final residual = 0.00413198, No Iterations 3
GAMG:  Solving for p, Initial residual = 0.077435, Final residual = 0.00394023, No Iterations 2
time step continuity errors : sum local = 0.00426274, global = -6.39445e-05, cumulative = 0.0129795
smoothSolver:  Solving for epsilon, Initial residual = 0.000304379, Final residual = 7.87317e-06, No Iterations 1
smoothSolver:  Solving for k, Initial residual = 0.00115329, Final residual = 3.37927e-05, No Iterations 2
ExecutionTime = 1.83 s  ClockTime = 1 s

Time = 81

smoothSolver:  Solving for Ux, Initial residual = 0.030015, Final residual = 0.00192256, No Iterations 3
smoothSolver:  Solving for Uy, Initial residual = 0.0647377, Final residual = 0.00397924, No Iterations 3
GAMG:  Solving for p, Initial residual = 0.0726228, Final residual = 0.00395864, No Iterations 2
time step continuity errors : sum local = 0.0039903, global = -0.000218175, cumulative = 0.0127614
smoothSolver:  Solving for epsilon, Initial residual = 0.00103063, Final residual = 9.21931e-06, No Iterations 1
smoothSolver:  Solving for k, Initial residual = 0.000696714, Final residual = 2.26805e-05, No Iterations 2
ExecutionTime = 1.85 s  ClockTime = 1 s

Time = 82

smoothSolver:  Solving for Ux, Initial residual = 0.0280238, Final residual = 0.00193827, No Iterations 3
smoothSolver:  Solving for Uy, Initial residual = 0.0622792, Final residual = 0.00388718, No Iterations 3
GAMG:  Solving for p, Initial residual = 0.0700478, Final residual = 0.00385809, No Iterations 2
time step continuity errors : sum local = 0.00373682, global = -0.000265884, cumulative = 0.0124955
smoothSolver:  Solving for epsilon, Initial residual = 0.000371985, Final residual = 8.21021e-06, No Iterations 1
smoothSolver:  Solving for k, Initial residual = 0.000684354, Final residual = 2.34215e-05, No Iterations 2
ExecutionTime = 1.86 s  ClockTime = 2 s

Time = 83

smoothSolver:  Solving for Ux, Initial residual = 0.025125, Final residual = 0.00200021, No Iterations 3
smoothSolver:  Solving for Uy, Initial residual = 0.0576963, Final residual = 0.00384612, No Iterations 3
GAMG:  Solving for p, Initial residual = 0.0675924, Final residual = 0.00380126, No Iterations 2
time step continuity errors : sum local = 0.00365097, global = -0.000358261, cumulative = 0.0121372
smoothSolver:  Solving for epsilon, Initial residual = 0.00225166, Final residual = 1.38415e-05, No Iterations 1
bounding epsilon, min: -1.98821e-07 max: 0.63 average: 0.00369546
smoothSolver:  Solving for k, Initial residual = 0.00224007, Final residual = 8.28614e-05, No Iterations 2
ExecutionTime = 1.88 s  ClockTime = 2 s

Time = 84

smoothSolver:  Solving for Ux, Initial residual = 0.0242815, Final residual = 0.00207188, No Iterations 3
smoothSolver:  Solving for Uy, Initial residual = 0.0538412, Final residual = 0.00368523, No Iterations 3
GAMG:  Solving for p, Initial residual = 0.0645467, Final residual = 0.00398172, No Iterations 2
time step continuity errors : sum local = 0.00349721, global = -9.31337e-05, cumulative = 0.0120441
smoothSolver:  Solving for epsilon, Initial residual = 0.00281337, Final residual = 0.000173717, No Iterations 1
smoothSolver:  Solving for k, Initial residual = 0.00394864, Final residual = 0.000156842, No Iterations 2
ExecutionTime = 1.89 s  ClockTime = 2 s

Time = 85

smoothSolver:  Solving for Ux, Initial residual = 0.0225758, Final residual = 0.00208091, No Iterations 3
smoothSolver:  Solving for Uy, Initial residual = 0.0510609, Final residual = 0.00386543, No Iterations 3
GAMG:  Solving for p, Initial residual = 0.0611948, Final residual = 0.00357788, No Iterations 2
time step continuity errors : sum local = 0.0029961, global = -0.000277038, cumulative = 0.011767
smoothSolver:  Solving for epsilon, Initial residual = 0.00574568, Final residual = 3.44591e-05, No Iterations 1
bounding epsilon, min: -9.06305e-07 max: 0.63 average: 0.0038735
smoothSolver:  Solving for k, Initial residual = 0.00471324, Final residual = 0.000208022, No Iterations 2
ExecutionTime = 1.92 s  ClockTime = 2 s

Time = 86

smoothSolver:  Solving for Ux, Initial residual = 0.0201095, Final residual = 0.00120134, No Iterations 4
smoothSolver:  Solving for Uy, Initial residual = 0.0493987, Final residual = 0.00422121, No Iterations 3
GAMG:  Solving for p, Initial residual = 0.061158, Final residual = 0.00391176, No Iterations 2
time step continuity errors : sum local = 0.00311936, global = -8.80718e-05, cumulative = 0.011679
smoothSolver:  Solving for epsilon, Initial residual = 0.00611825, Final residual = 0.000399718, No Iterations 1
bounding epsilon, min: -3.06858e-07 max: 0.63 average: 0.00414914
smoothSolver:  Solving for k, Initial residual = 0.00202715, Final residual = 8.78577e-05, No Iterations 2
ExecutionTime = 1.94 s  ClockTime = 2 s

Time = 87

smoothSolver:  Solving for Ux, Initial residual = 0.0187442, Final residual = 0.00117915, No Iterations 4
smoothSolver:  Solving for Uy, Initial residual = 0.0492085, Final residual = 0.00449972, No Iterations 3
GAMG:  Solving for p, Initial residual = 0.0589508, Final residual = 0.00356816, No Iterations 2
time step continuity errors : sum local = 0.00271781, global = -0.000279421, cumulative = 0.0113995
smoothSolver:  Solving for epsilon, Initial residual = 0.00647741, Final residual = 1.68004e-05, No Iterations 1
smoothSolver:  Solving for k, Initial residual = 0.00221225, Final residual = 9.64913e-05, No Iterations 2
ExecutionTime = 1.95 s  ClockTime = 2 s

Time = 88

smoothSolver:  Solving for Ux, Initial residual = 0.0179862, Final residual = 0.0011958, No Iterations 4
smoothSolver:  Solving for Uy, Initial residual = 0.0496251, Final residual = 0.00493515, No Iterations 3
GAMG:  Solving for p, Initial residual = 0.0571344, Final residual = 0.003741, No Iterations 2
time step continuity errors : sum local = 0.00269343, global = -0.000113621, cumulative = 0.0112859
smoothSolver:  Solving for epsilon, Initial residual = 0.000897663, Final residual = 3.1388e-05, No Iterations 1
smoothSolver:  Solving for k, Initial residual = 0.00253456, Final residual = 0.000103739, No Iterations 2
ExecutionTime = 1.97 s  ClockTime = 2 s

Time = 89

smoothSolver:  Solving for Ux, Initial residual = 0.0175872, Final residual = 0.00119111, No Iterations 4
smoothSolver:  Solving for Uy, Initial residual = 0.0491544, Final residual = 0.0030478, No Iterations 4
GAMG:  Solving for p, Initial residual = 0.0574839, Final residual = 0.00364985, No Iterations 2
time step continuity errors : sum local = 0.00247048, global = -0.0002953, cumulative = 0.0109906
smoothSolver:  Solving for epsilon, Initial residual = 0.005414, Final residual = 3.1932e-05, No Iterations 1
smoothSolver:  Solving for k, Initial residual = 0.00369466, Final residual = 0.000156912, No Iterations 2
ExecutionTime = 1.98 s  ClockTime = 2 s

Time = 90

smoothSolver:  Solving for Ux, Initial residual = 0.017069, Final residual = 0.0012166, No Iterations 4
smoothSolver:  Solving for Uy, Initial residual = 0.0481843, Final residual = 0.00319064, No Iterations 4
GAMG:  Solving for p, Initial residual = 0.0562774, Final residual = 0.00381686, No Iterations 2
time step continuity errors : sum local = 0.00239811, global = -0.000111679, cumulative = 0.0108789
smoothSolver:  Solving for epsilon, Initial residual = 0.00258417, Final residual = 0.000178289, No Iterations 1
smoothSolver:  Solving for k, Initial residual = 0.0055783, Final residual = 0.000269983, No Iterations 2
ExecutionTime = 2 s  ClockTime = 2 s

Time = 91

smoothSolver:  Solving for Ux, Initial residual = 0.0167355, Final residual = 0.00119669, No Iterations 4
smoothSolver:  Solving for Uy, Initial residual = 0.0466462, Final residual = 0.00321883, No Iterations 4
GAMG:  Solving for p, Initial residual = 0.0538176, Final residual = 0.00339836, No Iterations 2
time step continuity errors : sum local = 0.00199872, global = -0.000127582, cumulative = 0.0107514
smoothSolver:  Solving for epsilon, Initial residual = 0.0366433, Final residual = 0.000104325, No Iterations 1
bounding epsilon, min: -3.26588e-10 max: 0.63 average: 0.00417384
smoothSolver:  Solving for k, Initial residual = 0.00690301, Final residual = 0.00040383, No Iterations 2
ExecutionTime = 2.02 s  ClockTime = 2 s

Time = 92

smoothSolver:  Solving for Ux, Initial residual = 0.0159203, Final residual = 0.00117053, No Iterations 4
smoothSolver:  Solving for Uy, Initial residual = 0.0444292, Final residual = 0.0031419, No Iterations 4
GAMG:  Solving for p, Initial residual = 0.0509978, Final residual = 0.00329536, No Iterations 2
time step continuity errors : sum local = 0.00182477, global = -0.000104158, cumulative = 0.0106472
smoothSolver:  Solving for epsilon, Initial residual = 0.00467309, Final residual = 0.000190192, No Iterations 1
bounding epsilon, min: -1.08337e-08 max: 0.63 average: 0.0042576
smoothSolver:  Solving for k, Initial residual = 0.00252709, Final residual = 0.000162751, No Iterations 2
ExecutionTime = 2.04 s  ClockTime = 2 s

Time = 93

smoothSolver:  Solving for Ux, Initial residual = 0.0149285, Final residual = 0.00109951, No Iterations 4
smoothSolver:  Solving for Uy, Initial residual = 0.0414598, Final residual = 0.00290336, No Iterations 4
GAMG:  Solving for p, Initial residual = 0.048814, Final residual = 0.00312343, No Iterations 2
time step continuity errors : sum local = 0.00161989, global = -8.396e-05, cumulative = 0.0105632
smoothSolver:  Solving for epsilon, Initial residual = 0.00370013, Final residual = 3.01755e-05, No Iterations 1
smoothSolver:  Solving for k, Initial residual = 0.00259119, Final residual = 0.000185524, No Iterations 2
ExecutionTime = 2.06 s  ClockTime = 2 s

Time = 94

smoothSolver:  Solving for Ux, Initial residual = 0.0135775, Final residual = 0.000985295, No Iterations 4
smoothSolver:  Solving for Uy, Initial residual = 0.0384404, Final residual = 0.0026166, No Iterations 4
GAMG:  Solving for p, Initial residual = 0.0458911, Final residual = 0.00294718, No Iterations 2
time step continuity errors : sum local = 0.00144002, global = -4.79087e-05, cumulative = 0.0105153
smoothSolver:  Solving for epsilon, Initial residual = 0.000851123, Final residual = 5.18637e-05, No Iterations 1
bounding epsilon, min: -8.31963e-09 max: 0.63 average: 0.00421989
smoothSolver:  Solving for k, Initial residual = 0.000149577, Final residual = 1.11779e-05, No Iterations 2
ExecutionTime = 2.08 s  ClockTime = 2 s

Time = 95

smoothSolver:  Solving for Ux, Initial residual = 0.0119468, Final residual = 0.000848447, No Iterations 4
smoothSolver:  Solving for Uy, Initial residual = 0.0350137, Final residual = 0.002264, No Iterations 4
GAMG:  Solving for p, Initial residual = 0.0422986, Final residual = 0.00256244, No Iterations 2
time step continuity errors : sum local = 0.00118927, global = -0.000179022, cumulative = 0.0103363
smoothSolver:  Solving for epsilon, Initial residual = 0.00143177, Final residual = 1.63472e-06, No Iterations 1
smoothSolver:  Solving for k, Initial residual = 0.000140722, Final residual = 1.09053e-05, No Iterations 2
ExecutionTime = 2.09 s  ClockTime = 2 s

Time = 96

smoothSolver:  Solving for Ux, Initial residual = 0.0103028, Final residual = 0.000721348, No Iterations 4
smoothSolver:  Solving for Uy, Initial residual = 0.0309097, Final residual = 0.00184974, No Iterations 4
GAMG:  Solving for p, Initial residual = 0.0382154, Final residual = 0.00228434, No Iterations 2
time step continuity errors : sum local = 0.00101809, global = -0.000122345, cumulative = 0.010214
smoothSolver:  Solving for epsilon, Initial residual = 0.000169807, Final residual = 2.08135e-06, No Iterations 1
smoothSolver:  Solving for k, Initial residual = 0.000148751, Final residual = 1.17375e-05, No Iterations 2
ExecutionTime = 2.13 s  ClockTime = 2 s

Time = 97

smoothSolver:  Solving for Ux, Initial residual = 0.00881536, Final residual = 0.000610033, No Iterations 4
smoothSolver:  Solving for Uy, Initial residual = 0.0264022, Final residual = 0.00145357, No Iterations 4
GAMG:  Solving for p, Initial residual = 0.0338923, Final residual = 0.00192416, No Iterations 2
time step continuity errors : sum local = 0.000832944, global = -0.000149825, cumulative = 0.0100641
smoothSolver:  Solving for epsilon, Initial residual = 0.000205853, Final residual = 2.33566e-06, No Iterations 1
smoothSolver:  Solving for k, Initial residual = 0.000199152, Final residual = 1.58134e-05, No Iterations 2
ExecutionTime = 2.14 s  ClockTime = 2 s

Time = 98

smoothSolver:  Solving for Ux, Initial residual = 0.00751041, Final residual = 0.000505298, No Iterations 4
smoothSolver:  Solving for Uy, Initial residual = 0.0218277, Final residual = 0.00110332, No Iterations 4
GAMG:  Solving for p, Initial residual = 0.0289914, Final residual = 0.00160299, No Iterations 2
time step continuity errors : sum local = 0.000679132, global = -0.000122788, cumulative = 0.00994135
smoothSolver:  Solving for epsilon, Initial residual = 0.000348364, Final residual = 8.32351e-06, No Iterations 1
smoothSolver:  Solving for k, Initial residual = 7.87737e-05, Final residual = 6.33824e-06, No Iterations 2
ExecutionTime = 2.16 s  ClockTime = 2 s

Time = 99

smoothSolver:  Solving for Ux, Initial residual = 0.00636874, Final residual = 0.000425339, No Iterations 4
smoothSolver:  Solving for Uy, Initial residual = 0.0175659, Final residual = 0.00164207, No Iterations 3
GAMG:  Solving for p, Initial residual = 0.0241658, Final residual = 0.00128845, No Iterations 2
time step continuity errors : sum local = 0.000539577, global = -0.00012989, cumulative = 0.00981146
smoothSolver:  Solving for epsilon, Initial residual = 0.0171852, Final residual = 1.11849e-06, No Iterations 1
smoothSolver:  Solving for k, Initial residual = 9.4072e-05, Final residual = 7.71712e-06, No Iterations 2
ExecutionTime = 2.17 s  ClockTime = 2 s

Time = 100

smoothSolver:  Solving for Ux, Initial residual = 0.00538349, Final residual = 0.000355827, No Iterations 4
smoothSolver:  Solving for Uy, Initial residual = 0.0141776, Final residual = 0.00126408, No Iterations 3
GAMG:  Solving for p, Initial residual = 0.0200038, Final residual = 0.00107939, No Iterations 2
time step continuity errors : sum local = 0.000449623, global = -0.00011985, cumulative = 0.00969161
smoothSolver:  Solving for epsilon, Initial residual = 0.00205796, Final residual = 1.34529e-06, No Iterations 1
smoothSolver:  Solving for k, Initial residual = 0.000105601, Final residual = 8.85996e-06, No Iterations 2
ExecutionTime = 2.25 s  ClockTime = 2 s

Time = 101

smoothSolver:  Solving for Ux, Initial residual = 0.00454554, Final residual = 0.000305854, No Iterations 4
smoothSolver:  Solving for Uy, Initial residual = 0.0113152, Final residual = 0.000995604, No Iterations 3
GAMG:  Solving for p, Initial residual = 0.0167443, Final residual = 0.000948205, No Iterations 2
time step continuity errors : sum local = 0.000393777, global = -9.9972e-05, cumulative = 0.00959164
smoothSolver:  Solving for epsilon, Initial residual = 0.000288043, Final residual = 1.36034e-06, No Iterations 1
[...]
smoothSolver:  Solving for k, Initial residual = 0.000405211, Final residual = 3.56294e-05, No Iterations 1
ExecutionTime = 8.43 s  ClockTime = 8 s

Time = 473

smoothSolver:  Solving for Ux, Initial residual = 0.0001093, Final residual = 1.00447e-05, No Iterations 2
smoothSolver:  Solving for Uy, Initial residual = 0.000305091, Final residual = 2.97895e-05, No Iterations 2
GAMG:  Solving for p, Initial residual = 0.000468231, Final residual = 1.99543e-05, No Iterations 2
time step continuity errors : sum local = 7.62745e-06, global = -3.0109e-07, cumulative = 0.00867061
smoothSolver:  Solving for epsilon, Initial residual = 0.0456874, Final residual = 0.000274, No Iterations 1
smoothSolver:  Solving for k, Initial residual = 0.000679046, Final residual = 6.7651e-05, No Iterations 1
ExecutionTime = 8.46 s  ClockTime = 8 s

Time = 474

smoothSolver:  Solving for Ux, Initial residual = 0.000109645, Final residual = 1.00242e-05, No Iterations 2
smoothSolver:  Solving for Uy, Initial residual = 0.000313444, Final residual = 3.06193e-05, No Iterations 2
GAMG:  Solving for p, Initial residual = 0.000429978, Final residual = 2.00548e-05, No Iterations 2
time step continuity errors : sum local = 7.64629e-06, global = -4.00093e-07, cumulative = 0.00867021
smoothSolver:  Solving for epsilon, Initial residual = 0.0478348, Final residual = 0.000472802, No Iterations 1
smoothSolver:  Solving for k, Initial residual = 0.000782097, Final residual = 6.6049e-05, No Iterations 1
bounding k, min: -1.78316e-10 max: 0.0473041 average: 0.0171648
ExecutionTime = 8.48 s  ClockTime = 8 s

Time = 475

smoothSolver:  Solving for Ux, Initial residual = 0.000112007, Final residual = 9.89992e-06, No Iterations 2
smoothSolver:  Solving for Uy, Initial residual = 0.000307573, Final residual = 3.02263e-05, No Iterations 2
GAMG:  Solving for p, Initial residual = 0.000469428, Final residual = 2.05762e-05, No Iterations 2
time step continuity errors : sum local = 7.86757e-06, global = -3.78764e-08, cumulative = 0.00867017
smoothSolver:  Solving for epsilon, Initial residual = 0.0512124, Final residual = 0.000203295, No Iterations 1
smoothSolver:  Solving for k, Initial residual = 0.000336237, Final residual = 3.33135e-05, No Iterations 1
bounding k, min: -5.80092e-10 max: 0.047312 average: 0.0171673
ExecutionTime = 8.5 s  ClockTime = 8 s

Time = 476

smoothSolver:  Solving for Ux, Initial residual = 0.000113765, Final residual = 9.32735e-06, No Iterations 2
smoothSolver:  Solving for Uy, Initial residual = 0.00032468, Final residual = 3.03471e-05, No Iterations 2
GAMG:  Solving for p, Initial residual = 0.000410185, Final residual = 1.85128e-05, No Iterations 2
time step continuity errors : sum local = 7.06189e-06, global = -2.02277e-07, cumulative = 0.00866997
smoothSolver:  Solving for epsilon, Initial residual = 0.0061875, Final residual = 6.92673e-05, No Iterations 1
smoothSolver:  Solving for k, Initial residual = 0.000453937, Final residual = 3.67087e-05, No Iterations 1
ExecutionTime = 8.51 s  ClockTime = 8 s

Time = 477

smoothSolver:  Solving for Ux, Initial residual = 0.000120565, Final residual = 9.33983e-06, No Iterations 2
smoothSolver:  Solving for Uy, Initial residual = 0.000329845, Final residual = 2.93864e-05, No Iterations 2
GAMG:  Solving for p, Initial residual = 0.000469421, Final residual = 1.99184e-05, No Iterations 2
time step continuity errors : sum local = 7.61663e-06, global = -2.37227e-09, cumulative = 0.00866996
smoothSolver:  Solving for epsilon, Initial residual = 0.0156022, Final residual = 6.09567e-05, No Iterations 1
smoothSolver:  Solving for k, Initial residual = 0.000447479, Final residual = 1.11769e-05, No Iterations 2
ExecutionTime = 8.52 s  ClockTime = 8 s

Time = 478

smoothSolver:  Solving for Ux, Initial residual = 0.000111791, Final residual = 8.63157e-06, No Iterations 2
smoothSolver:  Solving for Uy, Initial residual = 0.00031343, Final residual = 2.92402e-05, No Iterations 2
GAMG:  Solving for p, Initial residual = 0.000363234, Final residual = 1.70913e-05, No Iterations 2
time step continuity errors : sum local = 6.52204e-06, global = -2.17887e-07, cumulative = 0.00866975
smoothSolver:  Solving for epsilon, Initial residual = 0.0179946, Final residual = 0.000132835, No Iterations 1
smoothSolver:  Solving for k, Initial residual = 0.000569791, Final residual = 4.60299e-05, No Iterations 1
ExecutionTime = 8.54 s  ClockTime = 8 s

Time = 479

smoothSolver:  Solving for Ux, Initial residual = 0.000107205, Final residual = 8.66084e-06, No Iterations 2
smoothSolver:  Solving for Uy, Initial residual = 0.000284427, Final residual = 2.7928e-05, No Iterations 2
GAMG:  Solving for p, Initial residual = 0.000449403, Final residual = 1.7459e-05, No Iterations 2
time step continuity errors : sum local = 6.67673e-06, global = -1.71315e-07, cumulative = 0.00866957
smoothSolver:  Solving for epsilon, Initial residual = 0.0400105, Final residual = 0.000156739, No Iterations 1
smoothSolver:  Solving for k, Initial residual = 0.000644108, Final residual = 1.64067e-05, No Iterations 2
ExecutionTime = 8.56 s  ClockTime = 8 s

Time = 480

smoothSolver:  Solving for Ux, Initial residual = 0.000112119, Final residual = 8.24758e-06, No Iterations 2
smoothSolver:  Solving for Uy, Initial residual = 0.000281156, Final residual = 2.74196e-05, No Iterations 2
GAMG:  Solving for p, Initial residual = 0.000380213, Final residual = 1.72449e-05, No Iterations 2
time step continuity errors : sum local = 6.58246e-06, global = 1.02353e-07, cumulative = 0.00866968
smoothSolver:  Solving for epsilon, Initial residual = 0.0458557, Final residual = 0.000466853, No Iterations 1
smoothSolver:  Solving for k, Initial residual = 0.000746133, Final residual = 6.06498e-05, No Iterations 1
ExecutionTime = 8.61 s  ClockTime = 8 s

Time = 481

smoothSolver:  Solving for Ux, Initial residual = 0.00011871, Final residual = 8.78188e-06, No Iterations 2
smoothSolver:  Solving for Uy, Initial residual = 0.000284578, Final residual = 2.52454e-05, No Iterations 2
GAMG:  Solving for p, Initial residual = 0.000446488, Final residual = 1.69083e-05, No Iterations 2
time step continuity errors : sum local = 6.46626e-06, global = 1.13025e-07, cumulative = 0.00866979
smoothSolver:  Solving for epsilon, Initial residual = 0.0664284, Final residual = 0.000230691, No Iterations 1
bounding epsilon, min: -1.59665e-06 max: 0.63 average: 0.00500959
smoothSolver:  Solving for k, Initial residual = 2.0256e-05, Final residual = 1.99642e-06, No Iterations 1
ExecutionTime = 8.63 s  ClockTime = 8 s

Time = 482

smoothSolver:  Solving for Ux, Initial residual = 0.000112084, Final residual = 8.98429e-06, No Iterations 2
smoothSolver:  Solving for Uy, Initial residual = 0.000279354, Final residual = 2.46362e-05, No Iterations 2
GAMG:  Solving for p, Initial residual = 0.000332594, Final residual = 1.44582e-05, No Iterations 2
time step continuity errors : sum local = 5.51723e-06, global = -5.38523e-08, cumulative = 0.00866974
smoothSolver:  Solving for epsilon, Initial residual = 0.00314667, Final residual = 2.20723e-06, No Iterations 1
smoothSolver:  Solving for k, Initial residual = 2.38741e-05, Final residual = 1.98836e-06, No Iterations 1
ExecutionTime = 8.63 s  ClockTime = 8 s

Time = 483

smoothSolver:  Solving for Ux, Initial residual = 0.000113923, Final residual = 9.89087e-06, No Iterations 2
smoothSolver:  Solving for Uy, Initial residual = 0.000277777, Final residual = 2.39868e-05, No Iterations 2
GAMG:  Solving for p, Initial residual = 0.00042942, Final residual = 1.62547e-05, No Iterations 2
time step continuity errors : sum local = 6.21474e-06, global = -9.77625e-09, cumulative = 0.00866973
smoothSolver:  Solving for epsilon, Initial residual = 0.000681715, Final residual = 1.45844e-06, No Iterations 1
smoothSolver:  Solving for k, Initial residual = 2.10514e-05, Final residual = 2.04047e-06, No Iterations 1
ExecutionTime = 8.64 s  ClockTime = 8 s

Time = 484

smoothSolver:  Solving for Ux, Initial residual = 0.000116389, Final residual = 1.00185e-05, No Iterations 2
smoothSolver:  Solving for Uy, Initial residual = 0.000269275, Final residual = 2.58206e-05, No Iterations 2
GAMG:  Solving for p, Initial residual = 0.000326416, Final residual = 1.4145e-05, No Iterations 2
time step continuity errors : sum local = 5.3973e-06, global = -1.15651e-07, cumulative = 0.00866961
smoothSolver:  Solving for epsilon, Initial residual = 0.000227419, Final residual = 2.15874e-06, No Iterations 1
smoothSolver:  Solving for k, Initial residual = 2.54108e-05, Final residual = 2.13841e-06, No Iterations 1
ExecutionTime = 8.66 s  ClockTime = 8 s

Time = 485

smoothSolver:  Solving for Ux, Initial residual = 0.000118114, Final residual = 1.11e-05, No Iterations 2
smoothSolver:  Solving for Uy, Initial residual = 0.000274187, Final residual = 2.69429e-05, No Iterations 2
GAMG:  Solving for p, Initial residual = 0.000421319, Final residual = 1.7568e-05, No Iterations 2
time step continuity errors : sum local = 6.71574e-06, global = 7.94347e-08, cumulative = 0.00866969
smoothSolver:  Solving for epsilon, Initial residual = 0.000700256, Final residual = 2.90904e-06, No Iterations 1
bounding epsilon, min: -7.47008e-06 max: 0.63 average: 0.00501549
smoothSolver:  Solving for k, Initial residual = 2.86174e-05, Final residual = 2.74525e-06, No Iterations 1
ExecutionTime = 8.66 s  ClockTime = 8 s

Time = 486

smoothSolver:  Solving for Ux, Initial residual = 0.000118574, Final residual = 1.12478e-05, No Iterations 2
smoothSolver:  Solving for Uy, Initial residual = 0.000266811, Final residual = 1.74131e-05, No Iterations 3
GAMG:  Solving for p, Initial residual = 0.000338118, Final residual = 1.50577e-05, No Iterations 2
time step continuity errors : sum local = 5.74696e-06, global = -7.16355e-10, cumulative = 0.00866969
smoothSolver:  Solving for epsilon, Initial residual = 0.0172062, Final residual = 1.32677e-05, No Iterations 1
bounding epsilon, min: -2.78193e-07 max: 0.63 average: 0.00505725
smoothSolver:  Solving for k, Initial residual = 0.000111042, Final residual = 9.28039e-06, No Iterations 1
ExecutionTime = 8.67 s  ClockTime = 8 s

Time = 487

smoothSolver:  Solving for Ux, Initial residual = 0.000124338, Final residual = 1.21564e-05, No Iterations 2
smoothSolver:  Solving for Uy, Initial residual = 0.000290599, Final residual = 1.75618e-05, No Iterations 3
GAMG:  Solving for p, Initial residual = 0.000417535, Final residual = 1.84727e-05, No Iterations 2
time step continuity errors : sum local = 7.05947e-06, global = -7.28797e-08, cumulative = 0.00866962
smoothSolver:  Solving for epsilon, Initial residual = 0.00457418, Final residual = 9.57351e-06, No Iterations 1
smoothSolver:  Solving for k, Initial residual = 0.00012657, Final residual = 1.23087e-05, No Iterations 1
ExecutionTime = 8.69 s  ClockTime = 8 s

Time = 488

smoothSolver:  Solving for Ux, Initial residual = 0.00012649, Final residual = 1.26431e-05, No Iterations 2
smoothSolver:  Solving for Uy, Initial residual = 0.000282483, Final residual = 1.83758e-05, No Iterations 3
GAMG:  Solving for p, Initial residual = 0.000362955, Final residual = 1.73814e-05, No Iterations 2
time step continuity errors : sum local = 6.63085e-06, global = -4.30726e-07, cumulative = 0.00866919
smoothSolver:  Solving for epsilon, Initial residual = 0.00256555, Final residual = 2.30449e-05, No Iterations 1
smoothSolver:  Solving for k, Initial residual = 0.00022545, Final residual = 1.90526e-05, No Iterations 1
ExecutionTime = 8.7 s  ClockTime = 8 s

Time = 489

smoothSolver:  Solving for Ux, Initial residual = 0.000125043, Final residual = 7.67879e-06, No Iterations 3
smoothSolver:  Solving for Uy, Initial residual = 0.000297085, Final residual = 1.89196e-05, No Iterations 3
GAMG:  Solving for p, Initial residual = 0.000411111, Final residual = 2.17893e-05, No Iterations 2
time step continuity errors : sum local = 8.32492e-06, global = 2.49635e-07, cumulative = 0.00866943
smoothSolver:  Solving for epsilon, Initial residual = 0.0225238, Final residual = 0.000115395, No Iterations 1
smoothSolver:  Solving for k, Initial residual = 8.97712e-05, Final residual = 8.57017e-06, No Iterations 1
ExecutionTime = 8.7 s  ClockTime = 8 s

Time = 490

smoothSolver:  Solving for Ux, Initial residual = 0.000132216, Final residual = 7.76331e-06, No Iterations 3
smoothSolver:  Solving for Uy, Initial residual = 0.000304869, Final residual = 1.99836e-05, No Iterations 3
GAMG:  Solving for p, Initial residual = 0.000399709, Final residual = 2.074e-05, No Iterations 2
time step continuity errors : sum local = 7.91398e-06, global = -4.24323e-08, cumulative = 0.00866939
smoothSolver:  Solving for epsilon, Initial residual = 0.00179521, Final residual = 1.27606e-05, No Iterations 1
smoothSolver:  Solving for k, Initial residual = 0.000114629, Final residual = 9.81507e-06, No Iterations 1
ExecutionTime = 8.72 s  ClockTime = 8 s

Time = 491

smoothSolver:  Solving for Ux, Initial residual = 0.000135527, Final residual = 1.27754e-05, No Iterations 2
smoothSolver:  Solving for Uy, Initial residual = 0.000325333, Final residual = 2.21821e-05, No Iterations 3
GAMG:  Solving for p, Initial residual = 0.000395578, Final residual = 1.94571e-05, No Iterations 2
time step continuity errors : sum local = 7.43137e-06, global = 5.47881e-08, cumulative = 0.00866945
smoothSolver:  Solving for epsilon, Initial residual = 0.0041326, Final residual = 1.43057e-05, No Iterations 1
smoothSolver:  Solving for k, Initial residual = 0.000181993, Final residual = 1.75943e-05, No Iterations 1
ExecutionTime = 8.74 s  ClockTime = 8 s

Time = 492

smoothSolver:  Solving for Ux, Initial residual = 0.000132337, Final residual = 8.09485e-06, No Iterations 3
smoothSolver:  Solving for Uy, Initial residual = 0.000306682, Final residual = 2.17355e-05, No Iterations 3
GAMG:  Solving for p, Initial residual = 0.000378744, Final residual = 2.16692e-05, No Iterations 2
time step continuity errors : sum local = 8.26625e-06, global = -2.36304e-07, cumulative = 0.00866921
smoothSolver:  Solving for epsilon, Initial residual = 0.0133083, Final residual = 0.000120021, No Iterations 1
smoothSolver:  Solving for k, Initial residual = 0.000603331, Final residual = 5.46088e-05, No Iterations 1
ExecutionTime = 8.75 s  ClockTime = 8 s

Time = 493

smoothSolver:  Solving for Ux, Initial residual = 0.000126742, Final residual = 1.25722e-05, No Iterations 2
smoothSolver:  Solving for Uy, Initial residual = 0.000310946, Final residual = 2.30157e-05, No Iterations 3
GAMG:  Solving for p, Initial residual = 0.000359873, Final residual = 1.93109e-05, No Iterations 2
time step continuity errors : sum local = 7.37279e-06, global = 3.63661e-08, cumulative = 0.00866925
smoothSolver:  Solving for epsilon, Initial residual = 0.0473885, Final residual = 0.000304417, No Iterations 1
bounding epsilon, min: -5.03095e-06 max: 0.63 average: 0.005024
smoothSolver:  Solving for k, Initial residual = 7.36538e-06, Final residual = 7.36538e-06, No Iterations 0
ExecutionTime = 8.77 s  ClockTime = 8 s

Time = 494

smoothSolver:  Solving for Ux, Initial residual = 0.000112382, Final residual = 8.664e-06, No Iterations 3
smoothSolver:  Solving for Uy, Initial residual = 0.000275195, Final residual = 1.96805e-05, No Iterations 3
GAMG:  Solving for p, Initial residual = 0.000366454, Final residual = 2.78263e-05, No Iterations 2
time step continuity errors : sum local = 1.06328e-05, global = 8.13321e-07, cumulative = 0.00867006
smoothSolver:  Solving for epsilon, Initial residual = 0.00562258, Final residual = 3.29944e-06, No Iterations 1
smoothSolver:  Solving for k, Initial residual = 4.17886e-05, Final residual = 5.66322e-06, No Iterations 1
ExecutionTime = 8.78 s  ClockTime = 8 s

Time = 495

smoothSolver:  Solving for Ux, Initial residual = 0.000116543, Final residual = 7.29284e-06, No Iterations 3
smoothSolver:  Solving for Uy, Initial residual = 0.000334434, Final residual = 2.15012e-05, No Iterations 3
GAMG:  Solving for p, Initial residual = 0.000358635, Final residual = 2.45152e-05, No Iterations 2
time step continuity errors : sum local = 9.34485e-06, global = -8.05596e-07, cumulative = 0.00866925
smoothSolver:  Solving for epsilon, Initial residual = 0.000840725, Final residual = 4.83153e-06, No Iterations 1
smoothSolver:  Solving for k, Initial residual = 7.51148e-05, Final residual = 7.80162e-06, No Iterations 1
ExecutionTime = 8.8 s  ClockTime = 8 s

Time = 496

smoothSolver:  Solving for Ux, Initial residual = 0.000108274, Final residual = 7.45679e-06, No Iterations 3
smoothSolver:  Solving for Uy, Initial residual = 0.000321436, Final residual = 2.19564e-05, No Iterations 3
GAMG:  Solving for p, Initial residual = 0.000359815, Final residual = 2.54528e-05, No Iterations 2
time step continuity errors : sum local = 9.72694e-06, global = 9.46716e-07, cumulative = 0.0086702
smoothSolver:  Solving for epsilon, Initial residual = 0.00106782, Final residual = 1.09891e-05, No Iterations 1
smoothSolver:  Solving for k, Initial residual = 0.000121795, Final residual = 3.0951e-06, No Iterations 2
ExecutionTime = 8.81 s  ClockTime = 8 s

Time = 497

smoothSolver:  Solving for Ux, Initial residual = 0.000109598, Final residual = 6.52747e-06, No Iterations 3
smoothSolver:  Solving for Uy, Initial residual = 0.000337432, Final residual = 2.26085e-05, No Iterations 3
GAMG:  Solving for p, Initial residual = 0.000374822, Final residual = 2.10388e-05, No Iterations 2
time step continuity errors : sum local = 8.02738e-06, global = -1.23658e-07, cumulative = 0.00867008
smoothSolver:  Solving for epsilon, Initial residual = 0.00315505, Final residual = 2.17493e-05, No Iterations 1
smoothSolver:  Solving for k, Initial residual = 0.000192037, Final residual = 4.88477e-06, No Iterations 2
ExecutionTime = 8.83 s  ClockTime = 9 s

Time = 498

smoothSolver:  Solving for Ux, Initial residual = 0.000105193, Final residual = 6.82137e-06, No Iterations 3
smoothSolver:  Solving for Uy, Initial residual = 0.000311157, Final residual = 2.25336e-05, No Iterations 3
GAMG:  Solving for p, Initial residual = 0.000349672, Final residual = 2.42599e-05, No Iterations 2
time step continuity errors : sum local = 9.2719e-06, global = 6.8492e-07, cumulative = 0.00867076
smoothSolver:  Solving for epsilon, Initial residual = 0.00682451, Final residual = 5.68575e-05, No Iterations 1
bounding epsilon, min: -3.97166e-09 max: 0.63 average: 0.00502119
smoothSolver:  Solving for k, Initial residual = 0.000351599, Final residual = 9.51538e-06, No Iterations 2
ExecutionTime = 8.85 s  ClockTime = 9 s

Time = 499

smoothSolver:  Solving for Ux, Initial residual = 0.000104582, Final residual = 6.98565e-06, No Iterations 3
smoothSolver:  Solving for Uy, Initial residual = 0.00029031, Final residual = 2.30314e-05, No Iterations 3
GAMG:  Solving for p, Initial residual = 0.000377859, Final residual = 2.24679e-05, No Iterations 2
time step continuity errors : sum local = 8.5774e-06, global = 4.86244e-08, cumulative = 0.00867081
smoothSolver:  Solving for epsilon, Initial residual = 0.0175749, Final residual = 0.000145229, No Iterations 1
smoothSolver:  Solving for k, Initial residual = 0.000315796, Final residual = 8.02568e-06, No Iterations 2
ExecutionTime = 8.87 s  ClockTime = 9 s

Time = 500

smoothSolver:  Solving for Ux, Initial residual = 0.000105158, Final residual = 7.26039e-06, No Iterations 3
smoothSolver:  Solving for Uy, Initial residual = 0.000292478, Final residual = 2.26894e-05, No Iterations 3
GAMG:  Solving for p, Initial residual = 0.000344514, Final residual = 2.19451e-05, No Iterations 2
time step continuity errors : sum local = 8.38092e-06, global = 4.19572e-07, cumulative = 0.00867123
smoothSolver:  Solving for epsilon, Initial residual = 0.0104937, Final residual = 8.0286e-05, No Iterations 1
smoothSolver:  Solving for k, Initial residual = 0.000424683, Final residual = 1.14671e-05, No Iterations 2
ExecutionTime = 8.94 s  ClockTime = 9 s

End

