/*---------------------------------------------------------------------------*\
| =========                 |                                                 |
| \\      /  F ield         | OpenFOAM: The Open Source CFD Toolbox           |
|  \\    /   O peration     | Version:  v1912                                 |
|   \\  /    A nd           | Website:  www.openfoam.com                      |
|    \\/     M anipulation  |                                                 |
\*---------------------------------------------------------------------------*/
Build  : _f3950763fe-20191219 OPENFOAM=1912
Arch   : "LSB;label=32;scalar=64"
Exec   : chtMultiRegionSimpleFoam
Date   : Nov 05 2020
Time   : 20:27:52
Host   : DESKTOP-7S8DQ3L
PID    : 9857
I/O    : uncollated
Case   : /home/logankp/OpenFOAM/logankp-v1912/run/CFD/Heat_Transfer/chtMultiRegionSimpleFoam/heatExchanger
nProcs : 1
trapFpe: Floating point exception trapping enabled (FOAM_SIGFPE).
fileModificationChecking : Monitoring run-time modified files using timeStampMaster (fileModificationSkew 10)
allowSystemOperations : Allowing user-supplied system call operations

// * * * * * * * * * * * * * * * * * * * * * * * * * * * * * * * * * * * * * //
Create time

Create fluid mesh for region air for time = 0

Create fluid mesh for region porous for time = 0

*** Reading fluid mesh thermophysical properties for region air

    Adding to thermoFluid

Selecting thermodynamics package 
{
    type            heRhoThermo;
    mixture         pureMixture;
    transport       polynomial;
    thermo          hPolynomial;
    equationOfState icoPolynomial;
    specie          specie;
    energy          sensibleEnthalpy;
}

    Adding to rhoFluid

    Adding to UFluid

    Adding to phiFluid

    Adding to hRefFluid

    Adding to ghFluid

    Adding to ghfFluid

    Adding to turbulence

Selecting turbulence model type RAS
Selecting RAS turbulence model kEpsilon
RAS
{
    RASModel        kEpsilon;
    turbulence      on;
    printCoeffs     on;
    Cmu             0.09;
    C1              1.44;
    C2              1.92;
    C3              0;
    sigmak          1;
    sigmaEps        1.3;
}

Selecting radiationModel none
    Adding MRF

Creating MRF zone list from MRFProperties
    creating MRF zone: MRF1
    Adding fvOptions

Creating finite volume options from "constant/fvOptions"

Selecting finite volume options type constantHeatTransfer
    Source: airToporous
Selecting finite volume options type interRegionExplicitPorositySource
    Source: porosityBlockage
- selecting inter region mapping
Creating mesh-to-mesh addressing for air and porous regions using cellVolumeWeight
    Overlap volume: 0.0075
*** Reading fluid mesh thermophysical properties for region porous

    Adding to thermoFluid

Selecting thermodynamics package 
{
    type            heRhoThermo;
    mixture         pureMixture;
    transport       polynomial;
    thermo          hPolynomial;
    equationOfState icoPolynomial;
    specie          specie;
    energy          sensibleEnthalpy;
}

    Adding to rhoFluid

    Adding to UFluid

    Adding to phiFluid

    Adding to hRefFluid

    Adding to ghFluid

    Adding to ghfFluid

    Adding to turbulence

Selecting turbulence model type laminar
Selecting laminar stress model Stokes
Radiation model not active: radiationProperties not found
Selecting radiationModel none
    Adding MRF

No MRF models present

    Adding fvOptions

Creating finite volume options from "constant/fvOptions"

Selecting finite volume options type constantHeatTransfer
    Source: porousToair
- selecting inter region mapping
Creating mesh-to-mesh addressing for porous and air regions using cellVolumeWeight
    Overlap volume: 0.0075

    From function virtual bool Foam::regIOobject::readIfModified()
    in file db/regIOobject/regIOobjectRead.C at line 282
        Re-reading object controlDict from file "/home/logankp/OpenFOAM/logankp-v1912/run/CFD/Heat_Transfer/chtMultiRegionSimpleFoam/heatExchanger/system/controlDict"
Time = 1


Solving for fluid region air
Porosity region porosityBlockage:
    selecting model: DarcyForchheimer
    creating porous zone: porosityBlockage:porous
    origin: (0 0 0) e1: (0 1 0) e2: (0 0 1)
    local bounds: (0.3 0.05 0.7)

DILUPBiCGStab:  Solving for Ux, Initial residual = 1, Final residual = 0.00867447, No Iterations 1
DILUPBiCGStab:  Solving for Uy, Initial residual = 1, Final residual = 0.00867447, No Iterations 1
DILUPBiCGStab:  Solving for Uz, Initial residual = 1, Final residual = 0.00351287, No Iterations 1
DILUPBiCGStab:  Solving for h, Initial residual = 1, Final residual = 0.00447769, No Iterations 1
Min/max T:300 300.018
GAMG:  Solving for p_rgh, Initial residual = 1, Final residual = 0.00834252, No Iterations 12
time step continuity errors : sum local = 0.0425249, global = -0.00394851, cumulative = -0.00394851
Min/max rho:1.17074 1.17081
DILUPBiCGStab:  Solving for epsilon, Initial residual = 0.0396654, Final residual = 0.000135803, No Iterations 1
DILUPBiCGStab:  Solving for k, Initial residual = 1, Final residual = 0.00742056, No Iterations 1

Solving for fluid region porous
DILUPBiCGStab:  Solving for Ux, Initial residual = 1, Final residual = 0.0058807, No Iterations 1
DILUPBiCGStab:  Solving for Uy, Initial residual = 0.940955, Final residual = 0.00782108, No Iterations 1
DILUPBiCGStab:  Solving for Uz, Initial residual = 0.99216, Final residual = 0.00431662, No Iterations 1
DILUPBiCGStab:  Solving for h, Initial residual = 1, Final residual = 0.00798012, No Iterations 1
Min/max T:349.984 400
GAMG:  Solving for p_rgh, Initial residual = 0.999996, Final residual = 0.00637825, No Iterations 9
time step continuity errors : sum local = 0.00103378, global = 0.000459295, cumulative = -0.00348922
Min/max rho:1000 1000
ExecutionTime = 47.34 s  ClockTime = 2796 s

Time = 2


Solving for fluid region air
DILUPBiCGStab:  Solving for Ux, Initial residual = 0.406573, Final residual = 0.00167472, No Iterations 1
DILUPBiCGStab:  Solving for Uy, Initial residual = 0.40636, Final residual = 0.00167254, No Iterations 1
DILUPBiCGStab:  Solving for Uz, Initial residual = 0.765182, Final residual = 0.00234059, No Iterations 1
DILUPBiCGStab:  Solving for h, Initial residual = 0.243017, Final residual = 0.00139328, No Iterations 1
Min/max T:299.894 300.18
GAMG:  Solving for p_rgh, Initial residual = 0.363902, Final residual = 0.00354758, No Iterations 9
time step continuity errors : sum local = 0.244715, global = -0.061316, cumulative = -0.0648052
Min/max rho:1.17007 1.17125
DILUPBiCGStab:  Solving for epsilon, Initial residual = 0.0494829, Final residual = 0.000242388, No Iterations 1
DILUPBiCGStab:  Solving for k, Initial residual = 0.70334, Final residual = 0.00513941, No Iterations 1

Solving for fluid region porous
DILUPBiCGStab:  Solving for Ux, Initial residual = 0.303024, Final residual = 0.00288616, No Iterations 1
DILUPBiCGStab:  Solving for Uy, Initial residual = 0.408358, Final residual = 0.00477583, No Iterations 1
DILUPBiCGStab:  Solving for Uz, Initial residual = 0.395902, Final residual = 0.00648237, No Iterations 1
DILUPBiCGStab:  Solving for h, Initial residual = 0.211496, Final residual = 0.00211141, No Iterations 1
Min/max T:349.965 400
GAMG:  Solving for p_rgh, Initial residual = 0.0160611, Final residual = 4.85e-05, No Iterations 8
time step continuity errors : sum local = 0.000447141, global = -7.19263e-05, cumulative = -0.0648771
Min/max rho:1000 1000
ExecutionTime = 48.71 s  ClockTime = 2797 s

Time = 3


Solving for fluid region air
DILUPBiCGStab:  Solving for Ux, Initial residual = 0.122974, Final residual = 0.000472407, No Iterations 1
DILUPBiCGStab:  Solving for Uy, Initial residual = 0.124345, Final residual = 0.000475857, No Iterations 1
DILUPBiCGStab:  Solving for Uz, Initial residual = 0.269356, Final residual = 0.000846671, No Iterations 1
DILUPBiCGStab:  Solving for h, Initial residual = 0.127739, Final residual = 0.00062785, No Iterations 1
Min/max T:299.9 300.287
GAMG:  Solving for p_rgh, Initial residual = 0.391359, Final residual = 0.00283896, No Iterations 11
time step continuity errors : sum local = 0.0772297, global = -0.0266187, cumulative = -0.0914959
Min/max rho:1.16963 1.17122
DILUPBiCGStab:  Solving for epsilon, Initial residual = 0.0425332, Final residual = 0.000212133, No Iterations 1
DILUPBiCGStab:  Solving for k, Initial residual = 0.171537, Final residual = 0.00125906, No Iterations 1

Solving for fluid region porous
DILUPBiCGStab:  Solving for Ux, Initial residual = 0.194283, Final residual = 0.00200551, No Iterations 1
DILUPBiCGStab:  Solving for Uy, Initial residual = 0.253109, Final residual = 0.00292813, No Iterations 1
DILUPBiCGStab:  Solving for Uz, Initial residual = 0.24086, Final residual = 0.00391634, No Iterations 1
DILUPBiCGStab:  Solving for h, Initial residual = 0.122821, Final residual = 0.00120986, No Iterations 1
Min/max T:349.944 400
GAMG:  Solving for p_rgh, Initial residual = 0.0104819, Final residual = 3.96557e-05, No Iterations 8
time step continuity errors : sum local = 0.000454584, global = 7.19561e-05, cumulative = -0.0914239
Min/max rho:1000 1000
ExecutionTime = 50.1 s  ClockTime = 2799 s

Time = 4


Solving for fluid region air
DILUPBiCGStab:  Solving for Ux, Initial residual = 0.0731844, Final residual = 0.000388707, No Iterations 1
DILUPBiCGStab:  Solving for Uy, Initial residual = 0.0700093, Final residual = 0.000374, No Iterations 1
DILUPBiCGStab:  Solving for Uz, Initial residual = 0.211953, Final residual = 0.000670493, No Iterations 1
DILUPBiCGStab:  Solving for h, Initial residual = 0.0867412, Final residual = 0.000419881, No Iterations 1
Min/max T:299.921 300.397
GAMG:  Solving for p_rgh, Initial residual = 0.325862, Final residual = 0.00185597, No Iterations 8
time step continuity errors : sum local = 0.0349497, global = 0.0136317, cumulative = -0.0777922
Min/max rho:1.16918 1.17114
DILUPBiCGStab:  Solving for epsilon, Initial residual = 0.0210972, Final residual = 0.000111558, No Iterations 1
DILUPBiCGStab:  Solving for k, Initial residual = 0.0689824, Final residual = 0.000507622, No Iterations 1

Solving for fluid region porous
DILUPBiCGStab:  Solving for Ux, Initial residual = 0.122447, Final residual = 0.00121161, No Iterations 1
DILUPBiCGStab:  Solving for Uy, Initial residual = 0.153915, Final residual = 0.00172647, No Iterations 1
DILUPBiCGStab:  Solving for Uz, Initial residual = 0.136884, Final residual = 0.00219407, No Iterations 1
DILUPBiCGStab:  Solving for h, Initial residual = 0.0864829, Final residual = 0.000742225, No Iterations 1
Min/max T:349.92 400
GAMG:  Solving for p_rgh, Initial residual = 0.00770039, Final residual = 3.66723e-05, No Iterations 8
time step continuity errors : sum local = 0.00032865, global = 4.96478e-05, cumulative = -0.0777426
Min/max rho:1000 1000
ExecutionTime = 51.35 s  ClockTime = 2800 s

Time = 5


Solving for fluid region air
DILUPBiCGStab:  Solving for Ux, Initial residual = 0.0699078, Final residual = 0.000342446, No Iterations 1
DILUPBiCGStab:  Solving for Uy, Initial residual = 0.0684461, Final residual = 0.000335469, No Iterations 1
DILUPBiCGStab:  Solving for Uz, Initial residual = 0.167817, Final residual = 0.000545738, No Iterations 1
DILUPBiCGStab:  Solving for h, Initial residual = 0.066105, Final residual = 0.000309091, No Iterations 1
Min/max T:299.935 300.504
GAMG:  Solving for p_rgh, Initial residual = 0.337457, Final residual = 0.00246538, No Iterations 8
time step continuity errors : sum local = 0.0346163, global = 0.0134534, cumulative = -0.0642892
Min/max rho:1.16874 1.17108
DILUPBiCGStab:  Solving for epsilon, Initial residual = 0.0168446, Final residual = 8.58392e-05, No Iterations 1
DILUPBiCGStab:  Solving for k, Initial residual = 0.0482021, Final residual = 0.000342872, No Iterations 1

Solving for fluid region porous
DILUPBiCGStab:  Solving for Ux, Initial residual = 0.0817769, Final residual = 0.000786645, No Iterations 1
DILUPBiCGStab:  Solving for Uy, Initial residual = 0.104422, Final residual = 0.00108672, No Iterations 1
DILUPBiCGStab:  Solving for Uz, Initial residual = 0.0848364, Final residual = 0.00134888, No Iterations 1
DILUPBiCGStab:  Solving for h, Initial residual = 0.0672997, Final residual = 0.000515197, No Iterations 1
Min/max T:349.895 400
GAMG:  Solving for p_rgh, Initial residual = 0.00576283, Final residual = 4.7619e-05, No Iterations 7
time step continuity errors : sum local = 0.000331553, global = -0.000160465, cumulative = -0.0644496
Min/max rho:1000 1000
ExecutionTime = 52.61 s  ClockTime = 2801 s

Time = 6


Solving for fluid region air
DILUPBiCGStab:  Solving for Ux, Initial residual = 0.0169861, Final residual = 8.46971e-05, No Iterations 1
DILUPBiCGStab:  Solving for Uy, Initial residual = 0.0170809, Final residual = 8.4211e-05, No Iterations 1
DILUPBiCGStab:  Solving for Uz, Initial residual = 0.0341595, Final residual = 0.000154737, No Iterations 1
DILUPBiCGStab:  Solving for h, Initial residual = 0.053389, Final residual = 0.000241281, No Iterations 1
Min/max T:299.945 300.605
GAMG:  Solving for p_rgh, Initial residual = 0.364828, Final residual = 0.0035191, No Iterations 8
time step continuity errors : sum local = 0.0255693, global = 0.00675557, cumulative = -0.0576941
Min/max rho:1.16833 1.17104
DILUPBiCGStab:  Solving for epsilon, Initial residual = 0.0155008, Final residual = 7.76678e-05, No Iterations 1
DILUPBiCGStab:  Solving for k, Initial residual = 0.042448, Final residual = 0.000256878, No Iterations 1

Solving for fluid region porous
DILUPBiCGStab:  Solving for Ux, Initial residual = 0.0636284, Final residual = 0.000600473, No Iterations 1
DILUPBiCGStab:  Solving for Uy, Initial residual = 0.0852749, Final residual = 0.000797326, No Iterations 1
DILUPBiCGStab:  Solving for Uz, Initial residual = 0.0652981, Final residual = 0.00104816, No Iterations 1
DILUPBiCGStab:  Solving for h, Initial residual = 0.0551901, Final residual = 0.000368556, No Iterations 1
Min/max T:349.867 400
GAMG:  Solving for p_rgh, Initial residual = 0.00453937, Final residual = 4.0978e-05, No Iterations 4
time step continuity errors : sum local = 0.000269543, global = 4.42306e-05, cumulative = -0.0576498
Min/max rho:1000 1000
ExecutionTime = 53.94 s  ClockTime = 2802 s

Time = 7


Solving for fluid region air
DILUPBiCGStab:  Solving for Ux, Initial residual = 0.0224476, Final residual = 9.29543e-05, No Iterations 1
DILUPBiCGStab:  Solving for Uy, Initial residual = 0.0222151, Final residual = 9.21364e-05, No Iterations 1
DILUPBiCGStab:  Solving for Uz, Initial residual = 0.0609615, Final residual = 0.000207325, No Iterations 1
DILUPBiCGStab:  Solving for h, Initial residual = 0.0448895, Final residual = 0.000197476, No Iterations 1
Min/max T:299.953 300.705
GAMG:  Solving for p_rgh, Initial residual = 0.267041, Final residual = 0.00197152, No Iterations 9
time step continuity errors : sum local = 0.0144056, global = -0.00409095, cumulative = -0.0617408
Min/max rho:1.16792 1.17101
DILUPBiCGStab:  Solving for epsilon, Initial residual = 0.0127725, Final residual = 7.166e-05, No Iterations 1
DILUPBiCGStab:  Solving for k, Initial residual = 0.0374177, Final residual = 0.000209873, No Iterations 1

Solving for fluid region porous
DILUPBiCGStab:  Solving for Ux, Initial residual = 0.0527843, Final residual = 0.000485167, No Iterations 1
DILUPBiCGStab:  Solving for Uy, Initial residual = 0.0747249, Final residual = 0.000636724, No Iterations 1
DILUPBiCGStab:  Solving for Uz, Initial residual = 0.0557308, Final residual = 0.000894721, No Iterations 1
DILUPBiCGStab:  Solving for h, Initial residual = 0.0470167, Final residual = 0.000278249, No Iterations 1
Min/max T:349.837 400
GAMG:  Solving for p_rgh, Initial residual = 0.00392808, Final residual = 2.67306e-05, No Iterations 7
time step continuity errors : sum local = 0.000176497, global = -8.31973e-05, cumulative = -0.061824
Min/max rho:1000 1000
ExecutionTime = 55.23 s  ClockTime = 2804 s

Time = 8


Solving for fluid region air
DILUPBiCGStab:  Solving for Ux, Initial residual = 0.010818, Final residual = 4.63311e-05, No Iterations 1
DILUPBiCGStab:  Solving for Uy, Initial residual = 0.0115575, Final residual = 4.81189e-05, No Iterations 1
DILUPBiCGStab:  Solving for Uz, Initial residual = 0.0198686, Final residual = 8.36672e-05, No Iterations 1
DILUPBiCGStab:  Solving for h, Initial residual = 0.0387857, Final residual = 0.000167646, No Iterations 1
Min/max T:299.958 300.807
GAMG:  Solving for p_rgh, Initial residual = 0.22362, Final residual = 0.0019945, No Iterations 9
time step continuity errors : sum local = 0.0104518, global = -0.00279871, cumulative = -0.0646227
Min/max rho:1.1675 1.17099
DILUPBiCGStab:  Solving for epsilon, Initial residual = 0.0101741, Final residual = 6.6088e-05, No Iterations 1
DILUPBiCGStab:  Solving for k, Initial residual = 0.0329084, Final residual = 0.000191806, No Iterations 1

Solving for fluid region porous
DILUPBiCGStab:  Solving for Ux, Initial residual = 0.0442205, Final residual = 0.000388992, No Iterations 1
DILUPBiCGStab:  Solving for Uy, Initial residual = 0.0649312, Final residual = 0.00051783, No Iterations 1
DILUPBiCGStab:  Solving for Uz, Initial residual = 0.0469416, Final residual = 0.000750254, No Iterations 1
DILUPBiCGStab:  Solving for h, Initial residual = 0.041056, Final residual = 0.000217582, No Iterations 1
Min/max T:349.806 400
GAMG:  Solving for p_rgh, Initial residual = 0.00405625, Final residual = 1.12279e-05, No Iterations 8
time step continuity errors : sum local = 7.11844e-05, global = 1.14442e-05, cumulative = -0.0646113
Min/max rho:1000 1000
ExecutionTime = 56.58 s  ClockTime = 2805 s

Time = 9


Solving for fluid region air
DILUPBiCGStab:  Solving for Ux, Initial residual = 0.00750808, Final residual = 4.10465e-05, No Iterations 1
DILUPBiCGStab:  Solving for Uy, Initial residual = 0.00813709, Final residual = 4.29501e-05, No Iterations 1
DILUPBiCGStab:  Solving for Uz, Initial residual = 0.0135439, Final residual = 5.99466e-05, No Iterations 1
DILUPBiCGStab:  Solving for h, Initial residual = 0.0341952, Final residual = 0.000145889, No Iterations 1
Min/max T:299.962 300.913
GAMG:  Solving for p_rgh, Initial residual = 0.152862, Final residual = 0.00151512, No Iterations 6
time step continuity errors : sum local = 0.006821, global = 0.00191123, cumulative = -0.0627
Min/max rho:1.16706 1.17097
DILUPBiCGStab:  Solving for epsilon, Initial residual = 0.00893067, Final residual = 6.23482e-05, No Iterations 1
DILUPBiCGStab:  Solving for k, Initial residual = 0.0293355, Final residual = 0.000186878, No Iterations 1

Solving for fluid region porous
DILUPBiCGStab:  Solving for Ux, Initial residual = 0.0372573, Final residual = 0.000313646, No Iterations 1
DILUPBiCGStab:  Solving for Uy, Initial residual = 0.0564818, Final residual = 0.000427328, No Iterations 1
DILUPBiCGStab:  Solving for Uz, Initial residual = 0.0389745, Final residual = 0.000619408, No Iterations 1
DILUPBiCGStab:  Solving for h, Initial residual = 0.0365592, Final residual = 0.000173477, No Iterations 1
Min/max T:349.774 400
GAMG:  Solving for p_rgh, Initial residual = 0.00353963, Final residual = 3.36163e-05, No Iterations 7
time step continuity errors : sum local = 0.000198686, global = -9.24197e-05, cumulative = -0.0627924
Min/max rho:1000 1000
ExecutionTime = 57.8 s  ClockTime = 2806 s

Time = 10


Solving for fluid region air
DILUPBiCGStab:  Solving for Ux, Initial residual = 0.0059176, Final residual = 3.2787e-05, No Iterations 1
DILUPBiCGStab:  Solving for Uy, Initial residual = 0.00631166, Final residual = 3.42969e-05, No Iterations 1
DILUPBiCGStab:  Solving for Uz, Initial residual = 0.0102676, Final residual = 4.73641e-05, No Iterations 1
DILUPBiCGStab:  Solving for h, Initial residual = 0.0306042, Final residual = 0.000129071, No Iterations 1
Min/max T:299.966 301.022
GAMG:  Solving for p_rgh, Initial residual = 0.126091, Final residual = 0.00121873, No Iterations 9
time step continuity errors : sum local = 0.00512485, global = -0.000610598, cumulative = -0.063403
Min/max rho:1.16661 1.17095
DILUPBiCGStab:  Solving for epsilon, Initial residual = 0.00856285, Final residual = 5.78622e-05, No Iterations 1
DILUPBiCGStab:  Solving for k, Initial residual = 0.0268297, Final residual = 0.000163782, No Iterations 1

Solving for fluid region porous
DILUPBiCGStab:  Solving for Ux, Initial residual = 0.0320171, Final residual = 0.000258184, No Iterations 1
DILUPBiCGStab:  Solving for Uy, Initial residual = 0.0499583, Final residual = 0.000359853, No Iterations 1
DILUPBiCGStab:  Solving for Uz, Initial residual = 0.0329608, Final residual = 0.000518194, No Iterations 1
DILUPBiCGStab:  Solving for h, Initial residual = 0.0330083, Final residual = 0.000143611, No Iterations 1
Min/max T:349.74 400
GAMG:  Solving for p_rgh, Initial residual = 0.00291774, Final residual = 2.22368e-05, No Iterations 7
time step continuity errors : sum local = 0.000123702, global = -5.72935e-05, cumulative = -0.0634603
Min/max rho:1000 1000
ExecutionTime = 59.22 s  ClockTime = 2808 s

Time = 11


Solving for fluid region air
DILUPBiCGStab:  Solving for Ux, Initial residual = 0.00563734, Final residual = 2.89867e-05, No Iterations 1
DILUPBiCGStab:  Solving for Uy, Initial residual = 0.00603742, Final residual = 3.00276e-05, No Iterations 1
DILUPBiCGStab:  Solving for Uz, Initial residual = 0.00756557, Final residual = 3.8947e-05, No Iterations 1
DILUPBiCGStab:  Solving for h, Initial residual = 0.0277219, Final residual = 0.000115714, No Iterations 1
Min/max T:299.969 301.133
GAMG:  Solving for p_rgh, Initial residual = 0.0853428, Final residual = 0.000613458, No Iterations 7
time step continuity errors : sum local = 0.0024876, global = -0.000319385, cumulative = -0.0637797
Min/max rho:1.16616 1.17094
DILUPBiCGStab:  Solving for epsilon, Initial residual = 0.00830368, Final residual = 5.41723e-05, No Iterations 1
DILUPBiCGStab:  Solving for k, Initial residual = 0.0250806, Final residual = 0.000144109, No Iterations 1

Solving for fluid region porous
DILUPBiCGStab:  Solving for Ux, Initial residual = 0.02798, Final residual = 0.000215793, No Iterations 1
DILUPBiCGStab:  Solving for Uy, Initial residual = 0.0449358, Final residual = 0.000309238, No Iterations 1
DILUPBiCGStab:  Solving for Uz, Initial residual = 0.0286797, Final residual = 0.00044326, No Iterations 1
DILUPBiCGStab:  Solving for h, Initial residual = 0.0301525, Final residual = 0.000120414, No Iterations 1
Min/max T:349.706 400
GAMG:  Solving for p_rgh, Initial residual = 0.0024796, Final residual = 1.95023e-05, No Iterations 7
time step continuity errors : sum local = 0.000104016, global = -4.86625e-05, cumulative = -0.0638284
Min/max rho:1000 1000
ExecutionTime = 60.53 s  ClockTime = 2809 s

Time = 12


Solving for fluid region air
DILUPBiCGStab:  Solving for Ux, Initial residual = 0.00567472, Final residual = 2.70044e-05, No Iterations 1
DILUPBiCGStab:  Solving for Uy, Initial residual = 0.0061295, Final residual = 2.80972e-05, No Iterations 1
DILUPBiCGStab:  Solving for Uz, Initial residual = 0.00802008, Final residual = 3.9328e-05, No Iterations 1
DILUPBiCGStab:  Solving for h, Initial residual = 0.0253614, Final residual = 0.000104908, No Iterations 1
Min/max T:299.972 301.248
GAMG:  Solving for p_rgh, Initial residual = 0.0692981, Final residual = 0.000497482, No Iterations 8
time step continuity errors : sum local = 0.00196375, global = 0.00030413, cumulative = -0.0635242
Min/max rho:1.16569 1.17093
DILUPBiCGStab:  Solving for epsilon, Initial residual = 0.00806083, Final residual = 5.11215e-05, No Iterations 1
DILUPBiCGStab:  Solving for k, Initial residual = 0.0237654, Final residual = 0.000129207, No Iterations 1

Solving for fluid region porous
DILUPBiCGStab:  Solving for Ux, Initial residual = 0.0249683, Final residual = 0.000181722, No Iterations 1
DILUPBiCGStab:  Solving for Uy, Initial residual = 0.0408923, Final residual = 0.000271015, No Iterations 1
DILUPBiCGStab:  Solving for Uz, Initial residual = 0.0253978, Final residual = 0.000384259, No Iterations 1
DILUPBiCGStab:  Solving for h, Initial residual = 0.0278233, Final residual = 0.000102929, No Iterations 1
Min/max T:349.671 400
GAMG:  Solving for p_rgh, Initial residual = 0.00225909, Final residual = 2.01095e-05, No Iterations 7
time step continuity errors : sum local = 0.000103581, global = -4.86594e-05, cumulative = -0.0635729
Min/max rho:1000 1000
ExecutionTime = 61.83 s  ClockTime = 2810 s

Time = 13


Solving for fluid region air
DILUPBiCGStab:  Solving for Ux, Initial residual = 0.00528061, Final residual = 2.55741e-05, No Iterations 1
DILUPBiCGStab:  Solving for Uy, Initial residual = 0.00578941, Final residual = 2.68595e-05, No Iterations 1
DILUPBiCGStab:  Solving for Uz, Initial residual = 0.00655652, Final residual = 3.2706e-05, No Iterations 1
DILUPBiCGStab:  Solving for h, Initial residual = 0.0233948, Final residual = 9.60495e-05, No Iterations 1
Min/max T:299.974 301.368
GAMG:  Solving for p_rgh, Initial residual = 0.0609899, Final residual = 0.00040318, No Iterations 8
time step continuity errors : sum local = 0.00150949, global = 0.000246542, cumulative = -0.0633264
Min/max rho:1.1652 1.17092
DILUPBiCGStab:  Solving for epsilon, Initial residual = 0.00790804, Final residual = 4.91184e-05, No Iterations 1
DILUPBiCGStab:  Solving for k, Initial residual = 0.0226787, Final residual = 0.000117691, No Iterations 1

Solving for fluid region porous
DILUPBiCGStab:  Solving for Ux, Initial residual = 0.0224963, Final residual = 0.000154902, No Iterations 1
DILUPBiCGStab:  Solving for Uy, Initial residual = 0.0374548, Final residual = 0.000241237, No Iterations 1
DILUPBiCGStab:  Solving for Uz, Initial residual = 0.0226746, Final residual = 0.000335054, No Iterations 1
DILUPBiCGStab:  Solving for h, Initial residual = 0.0258643, Final residual = 8.98496e-05, No Iterations 1
Min/max T:349.635 400
GAMG:  Solving for p_rgh, Initial residual = 0.00211164, Final residual = 1.93202e-05, No Iterations 7
time step continuity errors : sum local = 9.61454e-05, global = -4.52347e-05, cumulative = -0.0633716
Min/max rho:1000 1000
ExecutionTime = 63.25 s  ClockTime = 2812 s

Time = 14


Solving for fluid region air
DILUPBiCGStab:  Solving for Ux, Initial residual = 0.00492078, Final residual = 2.4253e-05, No Iterations 1
DILUPBiCGStab:  Solving for Uy, Initial residual = 0.00543886, Final residual = 2.55919e-05, No Iterations 1
DILUPBiCGStab:  Solving for Uz, Initial residual = 0.00582326, Final residual = 2.89021e-05, No Iterations 1
DILUPBiCGStab:  Solving for h, Initial residual = 0.0217342, Final residual = 8.86817e-05, No Iterations 1
Min/max T:299.976 301.494
GAMG:  Solving for p_rgh, Initial residual = 0.0509814, Final residual = 0.000244923, No Iterations 3
time step continuity errors : sum local = 0.000878181, global = -0.000125769, cumulative = -0.0634974
Min/max rho:1.16468 1.17091
DILUPBiCGStab:  Solving for epsilon, Initial residual = 0.00788538, Final residual = 4.78022e-05, No Iterations 1
DILUPBiCGStab:  Solving for k, Initial residual = 0.0217153, Final residual = 0.000108436, No Iterations 1

Solving for fluid region porous
DILUPBiCGStab:  Solving for Ux, Initial residual = 0.0204185, Final residual = 0.000137968, No Iterations 1
DILUPBiCGStab:  Solving for Uy, Initial residual = 0.0345112, Final residual = 0.000216472, No Iterations 1
DILUPBiCGStab:  Solving for Uz, Initial residual = 0.020382, Final residual = 0.000293696, No Iterations 1
DILUPBiCGStab:  Solving for h, Initial residual = 0.0242007, Final residual = 7.89577e-05, No Iterations 1
Min/max T:349.6 400
GAMG:  Solving for p_rgh, Initial residual = 0.00193406, Final residual = 1.72395e-05, No Iterations 7
time step continuity errors : sum local = 8.30126e-05, global = -3.90946e-05, cumulative = -0.0635365
Min/max rho:1000 1000
ExecutionTime = 64.55 s  ClockTime = 2813 s

Time = 15


Solving for fluid region air
DILUPBiCGStab:  Solving for Ux, Initial residual = 0.00474355, Final residual = 2.31651e-05, No Iterations 1
DILUPBiCGStab:  Solving for Uy, Initial residual = 0.00524313, Final residual = 2.44321e-05, No Iterations 1
DILUPBiCGStab:  Solving for Uz, Initial residual = 0.00559061, Final residual = 2.72625e-05, No Iterations 1
DILUPBiCGStab:  Solving for h, Initial residual = 0.020313, Final residual = 8.24412e-05, No Iterations 1
Min/max T:299.976 301.625
GAMG:  Solving for p_rgh, Initial residual = 0.0439507, Final residual = 0.000359213, No Iterations 5
time step continuity errors : sum local = 0.00125198, global = -0.000168605, cumulative = -0.0637051
Min/max rho:1.16415 1.17091
DILUPBiCGStab:  Solving for epsilon, Initial residual = 0.00792796, Final residual = 4.67916e-05, No Iterations 1
DILUPBiCGStab:  Solving for k, Initial residual = 0.0208407, Final residual = 0.000100718, No Iterations 1

Solving for fluid region porous
DILUPBiCGStab:  Solving for Ux, Initial residual = 0.0186589, Final residual = 0.000123561, No Iterations 1
DILUPBiCGStab:  Solving for Uy, Initial residual = 0.0319776, Final residual = 0.000195597, No Iterations 1
DILUPBiCGStab:  Solving for Uz, Initial residual = 0.0184709, Final residual = 0.00025847, No Iterations 1
DILUPBiCGStab:  Solving for h, Initial residual = 0.0227817, Final residual = 7.04844e-05, No Iterations 1
Min/max T:349.564 400
GAMG:  Solving for p_rgh, Initial residual = 0.00176437, Final residual = 1.53401e-05, No Iterations 7
time step continuity errors : sum local = 7.17227e-05, global = -3.3756e-05, cumulative = -0.0637388
Min/max rho:1000 1000
ExecutionTime = 65.86 s  ClockTime = 2814 s

Time = 16


Solving for fluid region air
DILUPBiCGStab:  Solving for Ux, Initial residual = 0.00462874, Final residual = 2.22148e-05, No Iterations 1
DILUPBiCGStab:  Solving for Uy, Initial residual = 0.00511038, Final residual = 2.34081e-05, No Iterations 1
DILUPBiCGStab:  Solving for Uz, Initial residual = 0.00546365, Final residual = 2.60399e-05, No Iterations 1
DILUPBiCGStab:  Solving for h, Initial residual = 0.0190837, Final residual = 7.7092e-05, No Iterations 1
Min/max T:299.976 301.762
GAMG:  Solving for p_rgh, Initial residual = 0.0391367, Final residual = 0.000316338, No Iterations 4
time step continuity errors : sum local = 0.0010794, global = 0.000222558, cumulative = -0.0635163
Min/max rho:1.16359 1.17091
DILUPBiCGStab:  Solving for epsilon, Initial residual = 0.00791947, Final residual = 4.60383e-05, No Iterations 1
DILUPBiCGStab:  Solving for k, Initial residual = 0.0201545, Final residual = 9.47209e-05, No Iterations 1

Solving for fluid region porous
DILUPBiCGStab:  Solving for Ux, Initial residual = 0.0171515, Final residual = 0.000111064, No Iterations 1
DILUPBiCGStab:  Solving for Uy, Initial residual = 0.0297855, Final residual = 0.000177878, No Iterations 1
DILUPBiCGStab:  Solving for Uz, Initial residual = 0.0168714, Final residual = 0.000228218, No Iterations 1
DILUPBiCGStab:  Solving for h, Initial residual = 0.0215482, Final residual = 6.38502e-05, No Iterations 1
Min/max T:349.529 400
GAMG:  Solving for p_rgh, Initial residual = 0.00162599, Final residual = 1.40811e-05, No Iterations 7
time step continuity errors : sum local = 6.41128e-05, global = -3.01857e-05, cumulative = -0.0635465
Min/max rho:1000 1000
ExecutionTime = 67.14 s  ClockTime = 2816 s

Time = 17


Solving for fluid region air
DILUPBiCGStab:  Solving for Ux, Initial residual = 0.00451526, Final residual = 2.13931e-05, No Iterations 1
DILUPBiCGStab:  Solving for Uy, Initial residual = 0.00499122, Final residual = 2.25593e-05, No Iterations 1
DILUPBiCGStab:  Solving for Uz, Initial residual = 0.00532037, Final residual = 2.4735e-05, No Iterations 1
DILUPBiCGStab:  Solving for h, Initial residual = 0.0180101, Final residual = 7.24639e-05, No Iterations 1
Min/max T:299.976 301.903
GAMG:  Solving for p_rgh, Initial residual = 0.0359162, Final residual = 0.000248685, No Iterations 3
time step continuity errors : sum local = 0.000832217, global = -0.000105684, cumulative = -0.0636521
Min/max rho:1.16301 1.17091
DILUPBiCGStab:  Solving for epsilon, Initial residual = 0.00786445, Final residual = 4.53319e-05, No Iterations 1
DILUPBiCGStab:  Solving for k, Initial residual = 0.0194913, Final residual = 8.9477e-05, No Iterations 1

Solving for fluid region porous
DILUPBiCGStab:  Solving for Ux, Initial residual = 0.0158442, Final residual = 0.000100193, No Iterations 1
DILUPBiCGStab:  Solving for Uy, Initial residual = 0.0278655, Final residual = 0.000163151, No Iterations 1
DILUPBiCGStab:  Solving for Uz, Initial residual = 0.0155089, Final residual = 0.000201985, No Iterations 1
DILUPBiCGStab:  Solving for h, Initial residual = 0.0204689, Final residual = 5.82184e-05, No Iterations 1
Min/max T:349.493 400
GAMG:  Solving for p_rgh, Initial residual = 0.00154651, Final residual = 1.30951e-05, No Iterations 7
time step continuity errors : sum local = 5.82219e-05, global = -2.74135e-05, cumulative = -0.0636796
Min/max rho:1000 1000
ExecutionTime = 68.37 s  ClockTime = 2817 s

Time = 18


Solving for fluid region air
DILUPBiCGStab:  Solving for Ux, Initial residual = 0.00439711, Final residual = 2.06569e-05, No Iterations 1
DILUPBiCGStab:  Solving for Uy, Initial residual = 0.0048732, Final residual = 2.18129e-05, No Iterations 1
DILUPBiCGStab:  Solving for Uz, Initial residual = 0.0051359, Final residual = 2.34451e-05, No Iterations 1
DILUPBiCGStab:  Solving for h, Initial residual = 0.017066, Final residual = 6.84167e-05, No Iterations 1
Min/max T:299.976 302.052
GAMG:  Solving for p_rgh, Initial residual = 0.0330863, Final residual = 0.000325675, No Iterations 4
time step continuity errors : sum local = 0.00106886, global = 0.000274374, cumulative = -0.0634052
Min/max rho:1.16241 1.17091
DILUPBiCGStab:  Solving for epsilon, Initial residual = 0.00775476, Final residual = 4.44041e-05, No Iterations 1
DILUPBiCGStab:  Solving for k, Initial residual = 0.0188216, Final residual = 8.36125e-05, No Iterations 1

Solving for fluid region porous
DILUPBiCGStab:  Solving for Ux, Initial residual = 0.0146974, Final residual = 9.07082e-05, No Iterations 1
DILUPBiCGStab:  Solving for Uy, Initial residual = 0.0261674, Final residual = 0.000150496, No Iterations 1
DILUPBiCGStab:  Solving for Uz, Initial residual = 0.0143303, Final residual = 0.000179114, No Iterations 1
DILUPBiCGStab:  Solving for h, Initial residual = 0.0195194, Final residual = 5.37773e-05, No Iterations 1
Min/max T:349.457 400
GAMG:  Solving for p_rgh, Initial residual = 0.00147271, Final residual = 1.21441e-05, No Iterations 7
time step continuity errors : sum local = 5.2831e-05, global = -2.48597e-05, cumulative = -0.06343
Min/max rho:1000 1000
ExecutionTime = 69.5 s  ClockTime = 2818 s

Time = 19


Solving for fluid region air
DILUPBiCGStab:  Solving for Ux, Initial residual = 0.00427146, Final residual = 1.99317e-05, No Iterations 1
DILUPBiCGStab:  Solving for Uy, Initial residual = 0.00474692, Final residual = 2.10774e-05, No Iterations 1
DILUPBiCGStab:  Solving for Uz, Initial residual = 0.00495942, Final residual = 2.21945e-05, No Iterations 1
DILUPBiCGStab:  Solving for h, Initial residual = 0.0162302, Final residual = 6.48502e-05, No Iterations 1
Min/max T:299.976 302.204
GAMG:  Solving for p_rgh, Initial residual = 0.0305386, Final residual = 0.000267271, No Iterations 4
time step continuity errors : sum local = 0.000862017, global = 0.00023322, cumulative = -0.0631968
Min/max rho:1.16179 1.17091
DILUPBiCGStab:  Solving for epsilon, Initial residual = 0.00764567, Final residual = 4.33841e-05, No Iterations 1
DILUPBiCGStab:  Solving for k, Initial residual = 0.0181765, Final residual = 7.8566e-05, No Iterations 1

Solving for fluid region porous
DILUPBiCGStab:  Solving for Ux, Initial residual = 0.0136835, Final residual = 8.26805e-05, No Iterations 1
DILUPBiCGStab:  Solving for Uy, Initial residual = 0.0246544, Final residual = 0.000139338, No Iterations 1
DILUPBiCGStab:  Solving for Uz, Initial residual = 0.0133022, Final residual = 0.000159559, No Iterations 1
DILUPBiCGStab:  Solving for h, Initial residual = 0.0186759, Final residual = 5.01593e-05, No Iterations 1
Min/max T:349.422 400
GAMG:  Solving for p_rgh, Initial residual = 0.00139486, Final residual = 1.12169e-05, No Iterations 7
time step continuity errors : sum local = 4.78164e-05, global = -2.247e-05, cumulative = -0.0632193
Min/max rho:1000 1000
ExecutionTime = 70.75 s  ClockTime = 2819 s

Time = 20


Solving for fluid region air
DILUPBiCGStab:  Solving for Ux, Initial residual = 0.00416086, Final residual = 1.92746e-05, No Iterations 1
DILUPBiCGStab:  Solving for Uy, Initial residual = 0.00462961, Final residual = 2.03881e-05, No Iterations 1
DILUPBiCGStab:  Solving for Uz, Initial residual = 0.00481419, Final residual = 2.11395e-05, No Iterations 1
DILUPBiCGStab:  Solving for h, Initial residual = 0.0154848, Final residual = 6.1677e-05, No Iterations 1
Min/max T:299.976 302.359
GAMG:  Solving for p_rgh, Initial residual = 0.0282999, Final residual = 0.000258869, No Iterations 3
time step continuity errors : sum local = 0.000821821, global = -0.000117442, cumulative = -0.0633367
Min/max rho:1.16116 1.17091
DILUPBiCGStab:  Solving for epsilon, Initial residual = 0.0075697, Final residual = 4.24854e-05, No Iterations 1
DILUPBiCGStab:  Solving for k, Initial residual = 0.017554, Final residual = 7.42857e-05, No Iterations 1

Solving for fluid region porous
DILUPBiCGStab:  Solving for Ux, Initial residual = 0.0128006, Final residual = 7.57996e-05, No Iterations 1
DILUPBiCGStab:  Solving for Uy, Initial residual = 0.0232991, Final residual = 0.00012948, No Iterations 1
DILUPBiCGStab:  Solving for Uz, Initial residual = 0.0124003, Final residual = 0.000143425, No Iterations 1
DILUPBiCGStab:  Solving for h, Initial residual = 0.0179257, Final residual = 4.68886e-05, No Iterations 1
Min/max T:349.386 400
GAMG:  Solving for p_rgh, Initial residual = 0.00131658, Final residual = 1.04013e-05, No Iterations 7
time step continuity errors : sum local = 4.34994e-05, global = -2.03801e-05, cumulative = -0.0633571
Min/max rho:1000 1000
ExecutionTime = 71.86 s  ClockTime = 2820 s

Time = 21


Solving for fluid region air
DILUPBiCGStab:  Solving for Ux, Initial residual = 0.00406851, Final residual = 1.8694e-05, No Iterations 1
DILUPBiCGStab:  Solving for Uy, Initial residual = 0.00452866, Final residual = 1.97646e-05, No Iterations 1
DILUPBiCGStab:  Solving for Uz, Initial residual = 0.00469111, Final residual = 2.02299e-05, No Iterations 1
DILUPBiCGStab:  Solving for h, Initial residual = 0.014816, Final residual = 5.88243e-05, No Iterations 1
Min/max T:299.976 302.517
GAMG:  Solving for p_rgh, Initial residual = 0.0263053, Final residual = 0.000166424, No Iterations 3
time step continuity errors : sum local = 0.000521027, global = -7.79417e-05, cumulative = -0.063435
Min/max rho:1.16052 1.17091
DILUPBiCGStab:  Solving for epsilon, Initial residual = 0.00746601, Final residual = 4.15858e-05, No Iterations 1
DILUPBiCGStab:  Solving for k, Initial residual = 0.0169687, Final residual = 7.05974e-05, No Iterations 1

Solving for fluid region porous
DILUPBiCGStab:  Solving for Ux, Initial residual = 0.0120922, Final residual = 6.97101e-05, No Iterations 1
DILUPBiCGStab:  Solving for Uy, Initial residual = 0.0220785, Final residual = 0.000120678, No Iterations 1
DILUPBiCGStab:  Solving for Uz, Initial residual = 0.0116038, Final residual = 0.000130041, No Iterations 1
DILUPBiCGStab:  Solving for h, Initial residual = 0.0172524, Final residual = 4.42178e-05, No Iterations 1
Min/max T:349.351 400
GAMG:  Solving for p_rgh, Initial residual = 0.00124049, Final residual = 9.66458e-06, No Iterations 7
time step continuity errors : sum local = 3.97143e-05, global = -1.85979e-05, cumulative = -0.0634536
Min/max rho:1000 1000
ExecutionTime = 73.01 s  ClockTime = 2822 s

Time = 22


Solving for fluid region air
DILUPBiCGStab:  Solving for Ux, Initial residual = 0.00398316, Final residual = 1.81456e-05, No Iterations 1
DILUPBiCGStab:  Solving for Uy, Initial residual = 0.0044366, Final residual = 1.91804e-05, No Iterations 1
DILUPBiCGStab:  Solving for Uz, Initial residual = 0.00458118, Final residual = 1.93755e-05, No Iterations 1
DILUPBiCGStab:  Solving for h, Initial residual = 0.0142128, Final residual = 5.62409e-05, No Iterations 1
Min/max T:299.976 302.675
GAMG:  Solving for p_rgh, Initial residual = 0.0245256, Final residual = 0.000155611, No Iterations 3
time step continuity errors : sum local = 0.000481514, global = -6.84963e-05, cumulative = -0.0635221
Min/max rho:1.15987 1.17091
DILUPBiCGStab:  Solving for epsilon, Initial residual = 0.00732705, Final residual = 4.06207e-05, No Iterations 1
DILUPBiCGStab:  Solving for k, Initial residual = 0.0164567, Final residual = 6.74156e-05, No Iterations 1

Solving for fluid region porous
DILUPBiCGStab:  Solving for Ux, Initial residual = 0.0114521, Final residual = 6.42881e-05, No Iterations 1
DILUPBiCGStab:  Solving for Uy, Initial residual = 0.0209734, Final residual = 0.000113008, No Iterations 1
DILUPBiCGStab:  Solving for Uz, Initial residual = 0.0108957, Final residual = 0.000118231, No Iterations 1
DILUPBiCGStab:  Solving for h, Initial residual = 0.0166435, Final residual = 4.18774e-05, No Iterations 1
Min/max T:349.316 400
GAMG:  Solving for p_rgh, Initial residual = 0.00116772, Final residual = 9.0009e-06, No Iterations 7
time step continuity errors : sum local = 3.64075e-05, global = -1.69466e-05, cumulative = -0.0635391
Min/max rho:1000 1000
ExecutionTime = 74.36 s  ClockTime = 2823 s

Time = 23


Solving for fluid region air
DILUPBiCGStab:  Solving for Ux, Initial residual = 0.00390581, Final residual = 1.76346e-05, No Iterations 1
DILUPBiCGStab:  Solving for Uy, Initial residual = 0.00435411, Final residual = 1.86397e-05, No Iterations 1
DILUPBiCGStab:  Solving for Uz, Initial residual = 0.00447643, Final residual = 1.85955e-05, No Iterations 1
DILUPBiCGStab:  Solving for h, Initial residual = 0.013666, Final residual = 5.3887e-05, No Iterations 1
Min/max T:299.976 302.836
GAMG:  Solving for p_rgh, Initial residual = 0.0229813, Final residual = 0.000191135, No Iterations 3
time step continuity errors : sum local = 0.000585256, global = -8.37337e-05, cumulative = -0.0636228
Min/max rho:1.15922 1.17091
DILUPBiCGStab:  Solving for epsilon, Initial residual = 0.00716078, Final residual = 3.96176e-05, No Iterations 1
DILUPBiCGStab:  Solving for k, Initial residual = 0.0159533, Final residual = 6.46199e-05, No Iterations 1

Solving for fluid region porous
DILUPBiCGStab:  Solving for Ux, Initial residual = 0.0108668, Final residual = 5.9455e-05, No Iterations 1
DILUPBiCGStab:  Solving for Uy, Initial residual = 0.019968, Final residual = 0.000106201, No Iterations 1
DILUPBiCGStab:  Solving for Uz, Initial residual = 0.0102622, Final residual = 0.000107595, No Iterations 1
DILUPBiCGStab:  Solving for h, Initial residual = 0.0160974, Final residual = 3.97747e-05, No Iterations 1
Min/max T:349.28 400
GAMG:  Solving for p_rgh, Initial residual = 0.00109854, Final residual = 8.39767e-06, No Iterations 7
time step continuity errors : sum local = 3.34339e-05, global = -1.55454e-05, cumulative = -0.0636384
Min/max rho:1000 1000
ExecutionTime = 75.59 s  ClockTime = 2824 s

Time = 24


Solving for fluid region air
DILUPBiCGStab:  Solving for Ux, Initial residual = 0.00383445, Final residual = 1.71596e-05, No Iterations 1
DILUPBiCGStab:  Solving for Uy, Initial residual = 0.00427777, Final residual = 1.81379e-05, No Iterations 1
DILUPBiCGStab:  Solving for Uz, Initial residual = 0.00437717, Final residual = 1.78875e-05, No Iterations 1
DILUPBiCGStab:  Solving for h, Initial residual = 0.0131687, Final residual = 5.17322e-05, No Iterations 1
Min/max T:299.975 303.001
GAMG:  Solving for p_rgh, Initial residual = 0.0217146, Final residual = 0.00013396, No Iterations 4
time step continuity errors : sum local = 0.00040615, global = 8.97291e-05, cumulative = -0.0635486
Min/max rho:1.15855 1.17091
DILUPBiCGStab:  Solving for epsilon, Initial residual = 0.00699698, Final residual = 3.85548e-05, No Iterations 1
DILUPBiCGStab:  Solving for k, Initial residual = 0.015462, Final residual = 6.20148e-05, No Iterations 1

Solving for fluid region porous
DILUPBiCGStab:  Solving for Ux, Initial residual = 0.0103281, Final residual = 5.51992e-05, No Iterations 1
DILUPBiCGStab:  Solving for Uy, Initial residual = 0.0190496, Final residual = 0.000100032, No Iterations 1
DILUPBiCGStab:  Solving for Uz, Initial residual = 0.00969235, Final residual = 9.81499e-05, No Iterations 1
DILUPBiCGStab:  Solving for h, Initial residual = 0.0155999, Final residual = 3.80027e-05, No Iterations 1
Min/max T:349.245 400
GAMG:  Solving for p_rgh, Initial residual = 0.00103377, Final residual = 7.83013e-06, No Iterations 7
time step continuity errors : sum local = 3.07258e-05, global = -1.42393e-05, cumulative = -0.0635629
Min/max rho:1000 1000
ExecutionTime = 77.03 s  ClockTime = 2826 s

Time = 25


Solving for fluid region air
DILUPBiCGStab:  Solving for Ux, Initial residual = 0.00376472, Final residual = 1.67103e-05, No Iterations 1
DILUPBiCGStab:  Solving for Uy, Initial residual = 0.0042026, Final residual = 1.76608e-05, No Iterations 1
DILUPBiCGStab:  Solving for Uz, Initial residual = 0.00428619, Final residual = 1.72292e-05, No Iterations 1
DILUPBiCGStab:  Solving for h, Initial residual = 0.0127145, Final residual = 4.9745e-05, No Iterations 1
Min/max T:299.975 303.166
GAMG:  Solving for p_rgh, Initial residual = 0.0206356, Final residual = 0.000120477, No Iterations 4
time step continuity errors : sum local = 0.00036195, global = 8.79536e-05, cumulative = -0.0634749
Min/max rho:1.15788 1.17092
DILUPBiCGStab:  Solving for epsilon, Initial residual = 0.00685744, Final residual = 3.75679e-05, No Iterations 1
DILUPBiCGStab:  Solving for k, Initial residual = 0.0149896, Final residual = 5.95746e-05, No Iterations 1

Solving for fluid region porous
DILUPBiCGStab:  Solving for Ux, Initial residual = 0.00983189, Final residual = 5.15165e-05, No Iterations 1
DILUPBiCGStab:  Solving for Uy, Initial residual = 0.0182074, Final residual = 9.4345e-05, No Iterations 1
DILUPBiCGStab:  Solving for Uz, Initial residual = 0.00917737, Final residual = 8.97374e-05, No Iterations 1
DILUPBiCGStab:  Solving for h, Initial residual = 0.0151444, Final residual = 3.63089e-05, No Iterations 1
Min/max T:349.211 400
GAMG:  Solving for p_rgh, Initial residual = 0.000975147, Final residual = 7.31573e-06, No Iterations 7
time step continuity errors : sum local = 2.83374e-05, global = -1.30683e-05, cumulative = -0.063488
Min/max rho:1000 1000
ExecutionTime = 78.21 s  ClockTime = 2827 s

Time = 26


Solving for fluid region air
DILUPBiCGStab:  Solving for Ux, Initial residual = 0.00370056, Final residual = 1.62971e-05, No Iterations 1
DILUPBiCGStab:  Solving for Uy, Initial residual = 0.00413193, Final residual = 1.72151e-05, No Iterations 1
DILUPBiCGStab:  Solving for Uz, Initial residual = 0.00420148, Final residual = 1.66365e-05, No Iterations 1
DILUPBiCGStab:  Solving for h, Initial residual = 0.0122977, Final residual = 4.79024e-05, No Iterations 1
Min/max T:299.975 303.329
GAMG:  Solving for p_rgh, Initial residual = 0.0196862, Final residual = 0.000182717, No Iterations 3
time step continuity errors : sum local = 0.000544227, global = -7.14556e-05, cumulative = -0.0635595
Min/max rho:1.15722 1.17092
DILUPBiCGStab:  Solving for epsilon, Initial residual = 0.00672932, Final residual = 3.67364e-05, No Iterations 1
DILUPBiCGStab:  Solving for k, Initial residual = 0.0145343, Final residual = 5.7238e-05, No Iterations 1

Solving for fluid region porous
DILUPBiCGStab:  Solving for Ux, Initial residual = 0.0093735, Final residual = 4.8308e-05, No Iterations 1
DILUPBiCGStab:  Solving for Uy, Initial residual = 0.0174325, Final residual = 8.91918e-05, No Iterations 1
DILUPBiCGStab:  Solving for Uz, Initial residual = 0.00870996, Final residual = 8.24792e-05, No Iterations 1
DILUPBiCGStab:  Solving for h, Initial residual = 0.014734, Final residual = 3.4869e-05, No Iterations 1
Min/max T:349.176 400
GAMG:  Solving for p_rgh, Initial residual = 0.00092819, Final residual = 6.85971e-06, No Iterations 7
time step continuity errors : sum local = 2.62409e-05, global = -1.20507e-05, cumulative = -0.0635715
Min/max rho:1000 1000
ExecutionTime = 79.39 s  ClockTime = 2828 s

Time = 27


Solving for fluid region air
DILUPBiCGStab:  Solving for Ux, Initial residual = 0.00364148, Final residual = 1.59152e-05, No Iterations 1
DILUPBiCGStab:  Solving for Uy, Initial residual = 0.00406632, Final residual = 1.67993e-05, No Iterations 1
DILUPBiCGStab:  Solving for Uz, Initial residual = 0.00412162, Final residual = 1.6098e-05, No Iterations 1
DILUPBiCGStab:  Solving for h, Initial residual = 0.0119138, Final residual = 4.61854e-05, No Iterations 1
Min/max T:299.975 303.489
GAMG:  Solving for p_rgh, Initial residual = 0.0188183, Final residual = 0.000108478, No Iterations 4
time step continuity errors : sum local = 0.000320573, global = 6.72176e-05, cumulative = -0.0635043
Min/max rho:1.15658 1.17092
DILUPBiCGStab:  Solving for epsilon, Initial residual = 0.00658938, Final residual = 3.59567e-05, No Iterations 1
DILUPBiCGStab:  Solving for k, Initial residual = 0.0140973, Final residual = 5.49686e-05, No Iterations 1

Solving for fluid region porous
DILUPBiCGStab:  Solving for Ux, Initial residual = 0.00894291, Final residual = 4.53917e-05, No Iterations 1
DILUPBiCGStab:  Solving for Uy, Initial residual = 0.0167171, Final residual = 8.4571e-05, No Iterations 1
DILUPBiCGStab:  Solving for Uz, Initial residual = 0.00828396, Final residual = 7.63824e-05, No Iterations 1
DILUPBiCGStab:  Solving for h, Initial residual = 0.0143574, Final residual = 3.35753e-05, No Iterations 1
Min/max T:349.141 400
GAMG:  Solving for p_rgh, Initial residual = 0.000891046, Final residual = 6.43815e-06, No Iterations 7
time step continuity errors : sum local = 2.43304e-05, global = -1.11548e-05, cumulative = -0.0635154
Min/max rho:1000 1000
ExecutionTime = 80.86 s  ClockTime = 2829 s

Time = 28


Solving for fluid region air
DILUPBiCGStab:  Solving for Ux, Initial residual = 0.00358197, Final residual = 1.55439e-05, No Iterations 1
DILUPBiCGStab:  Solving for Uy, Initial residual = 0.00400092, Final residual = 1.63969e-05, No Iterations 1
DILUPBiCGStab:  Solving for Uz, Initial residual = 0.00404845, Final residual = 1.55858e-05, No Iterations 1
DILUPBiCGStab:  Solving for h, Initial residual = 0.0115592, Final residual = 4.45811e-05, No Iterations 1
Min/max T:299.975 303.645
GAMG:  Solving for p_rgh, Initial residual = 0.0180164, Final residual = 0.000165368, No Iterations 3
time step continuity errors : sum local = 0.000485402, global = -6.61325e-05, cumulative = -0.0635816
Min/max rho:1.15595 1.17092
DILUPBiCGStab:  Solving for epsilon, Initial residual = 0.00643678, Final residual = 3.52411e-05, No Iterations 1
DILUPBiCGStab:  Solving for k, Initial residual = 0.0136865, Final residual = 5.27644e-05, No Iterations 1

Solving for fluid region porous
DILUPBiCGStab:  Solving for Ux, Initial residual = 0.00853134, Final residual = 4.26751e-05, No Iterations 1
DILUPBiCGStab:  Solving for Uy, Initial residual = 0.0160545, Final residual = 8.03583e-05, No Iterations 1
DILUPBiCGStab:  Solving for Uz, Initial residual = 0.00789425, Final residual = 7.08387e-05, No Iterations 1
DILUPBiCGStab:  Solving for h, Initial residual = 0.0140069, Final residual = 3.23269e-05, No Iterations 1
Min/max T:349.106 400
GAMG:  Solving for p_rgh, Initial residual = 0.000854836, Final residual = 6.05396e-06, No Iterations 7
time step continuity errors : sum local = 2.26375e-05, global = -1.03288e-05, cumulative = -0.0635919
Min/max rho:1000 1000
ExecutionTime = 82.15 s  ClockTime = 2831 s

Time = 29


Solving for fluid region air
DILUPBiCGStab:  Solving for Ux, Initial residual = 0.00352821, Final residual = 1.51992e-05, No Iterations 1
DILUPBiCGStab:  Solving for Uy, Initial residual = 0.00394137, Final residual = 1.60234e-05, No Iterations 1
DILUPBiCGStab:  Solving for Uz, Initial residual = 0.00397718, Final residual = 1.51271e-05, No Iterations 1
DILUPBiCGStab:  Solving for h, Initial residual = 0.0112306, Final residual = 4.30781e-05, No Iterations 1
Min/max T:299.975 303.798
GAMG:  Solving for p_rgh, Initial residual = 0.0173045, Final residual = 9.89985e-05, No Iterations 4
time step continuity errors : sum local = 0.000288728, global = 6.26499e-05, cumulative = -0.0635292
Min/max rho:1.15533 1.17092
DILUPBiCGStab:  Solving for epsilon, Initial residual = 0.00627944, Final residual = 3.45284e-05, No Iterations 1
DILUPBiCGStab:  Solving for k, Initial residual = 0.0133089, Final residual = 5.07357e-05, No Iterations 1

Solving for fluid region porous
DILUPBiCGStab:  Solving for Ux, Initial residual = 0.00814265, Final residual = 4.01632e-05, No Iterations 1
DILUPBiCGStab:  Solving for Uy, Initial residual = 0.0154393, Final residual = 7.64787e-05, No Iterations 1
DILUPBiCGStab:  Solving for Uz, Initial residual = 0.00753651, Final residual = 6.5767e-05, No Iterations 1
DILUPBiCGStab:  Solving for h, Initial residual = 0.013692, Final residual = 3.12735e-05, No Iterations 1
Min/max T:349.072 400
GAMG:  Solving for p_rgh, Initial residual = 0.00081934, Final residual = 5.73505e-06, No Iterations 7
time step continuity errors : sum local = 2.12119e-05, global = -9.64342e-06, cumulative = -0.0635389
Min/max rho:1000 1000
ExecutionTime = 83.47 s  ClockTime = 2832 s

Time = 30


Solving for fluid region air
DILUPBiCGStab:  Solving for Ux, Initial residual = 0.00347419, Final residual = 1.48666e-05, No Iterations 1
DILUPBiCGStab:  Solving for Uy, Initial residual = 0.00388175, Final residual = 1.56623e-05, No Iterations 1
DILUPBiCGStab:  Solving for Uz, Initial residual = 0.003911, Final residual = 1.46994e-05, No Iterations 1
DILUPBiCGStab:  Solving for h, Initial residual = 0.0109256, Final residual = 4.16669e-05, No Iterations 1
Min/max T:299.975 303.946
GAMG:  Solving for p_rgh, Initial residual = 0.0167036, Final residual = 0.000156872, No Iterations 3
time step continuity errors : sum local = 0.00045486, global = -5.88156e-05, cumulative = -0.0635977
Min/max rho:1.15473 1.17092
DILUPBiCGStab:  Solving for epsilon, Initial residual = 0.00612895, Final residual = 3.38186e-05, No Iterations 1
DILUPBiCGStab:  Solving for k, Initial residual = 0.0129478, Final residual = 4.8933e-05, No Iterations 1

Solving for fluid region porous
DILUPBiCGStab:  Solving for Ux, Initial residual = 0.00778048, Final residual = 3.78688e-05, No Iterations 1
DILUPBiCGStab:  Solving for Uy, Initial residual = 0.0148667, Final residual = 7.28629e-05, No Iterations 1
DILUPBiCGStab:  Solving for Uz, Initial residual = 0.00720706, Final residual = 6.11943e-05, No Iterations 1
DILUPBiCGStab:  Solving for h, Initial residual = 0.0134002, Final residual = 3.02735e-05, No Iterations 1
Min/max T:349.037 400
GAMG:  Solving for p_rgh, Initial residual = 0.000784745, Final residual = 5.44301e-06, No Iterations 7
time step continuity errors : sum local = 1.99299e-05, global = -9.02225e-06, cumulative = -0.0636067
Min/max rho:1000 1000
ExecutionTime = 84.94 s  ClockTime = 2834 s

Time = 31


Solving for fluid region air
DILUPBiCGStab:  Solving for Ux, Initial residual = 0.00342477, Final residual = 1.4559e-05, No Iterations 1
DILUPBiCGStab:  Solving for Uy, Initial residual = 0.0038266, Final residual = 1.53246e-05, No Iterations 1
DILUPBiCGStab:  Solving for Uz, Initial residual = 0.00384668, Final residual = 1.43214e-05, No Iterations 1
DILUPBiCGStab:  Solving for h, Initial residual = 0.0106416, Final residual = 4.03367e-05, No Iterations 1
Min/max T:299.974 304.089
GAMG:  Solving for p_rgh, Initial residual = 0.0162229, Final residual = 9.51286e-05, No Iterations 4
time step continuity errors : sum local = 0.000274284, global = 6.10311e-05, cumulative = -0.0635457
Min/max rho:1.15416 1.17092
DILUPBiCGStab:  Solving for epsilon, Initial residual = 0.00599433, Final residual = 3.31599e-05, No Iterations 1
DILUPBiCGStab:  Solving for k, Initial residual = 0.0126017, Final residual = 4.72902e-05, No Iterations 1

Solving for fluid region porous
DILUPBiCGStab:  Solving for Ux, Initial residual = 0.00744506, Final residual = 3.59033e-05, No Iterations 1
DILUPBiCGStab:  Solving for Uy, Initial residual = 0.0143322, Final residual = 6.95257e-05, No Iterations 1
DILUPBiCGStab:  Solving for Uz, Initial residual = 0.00690275, Final residual = 5.71087e-05, No Iterations 1
DILUPBiCGStab:  Solving for h, Initial residual = 0.0131288, Final residual = 2.93516e-05, No Iterations 1
Min/max T:349.003 400
GAMG:  Solving for p_rgh, Initial residual = 0.000751667, Final residual = 5.18794e-06, No Iterations 7
time step continuity errors : sum local = 1.88111e-05, global = -8.53103e-06, cumulative = -0.0635542
Min/max rho:1000 1000
ExecutionTime = 86.33 s  ClockTime = 2835 s

Time = 32


Solving for fluid region air
DILUPBiCGStab:  Solving for Ux, Initial residual = 0.00337421, Final residual = 1.42587e-05, No Iterations 1
DILUPBiCGStab:  Solving for Uy, Initial residual = 0.00377031, Final residual = 1.49959e-05, No Iterations 1
DILUPBiCGStab:  Solving for Uz, Initial residual = 0.00378824, Final residual = 1.39651e-05, No Iterations 1
DILUPBiCGStab:  Solving for h, Initial residual = 0.0103764, Final residual = 3.90798e-05, No Iterations 1
Min/max T:299.974 304.227
GAMG:  Solving for p_rgh, Initial residual = 0.0158307, Final residual = 0.000148975, No Iterations 3
time step continuity errors : sum local = 0.000427392, global = -5.52885e-05, cumulative = -0.0636095
Min/max rho:1.1536 1.17092
DILUPBiCGStab:  Solving for epsilon, Initial residual = 0.00586909, Final residual = 3.25812e-05, No Iterations 1
DILUPBiCGStab:  Solving for k, Initial residual = 0.0122667, Final residual = 4.57272e-05, No Iterations 1

Solving for fluid region porous
DILUPBiCGStab:  Solving for Ux, Initial residual = 0.00713219, Final residual = 3.41359e-05, No Iterations 1
DILUPBiCGStab:  Solving for Uy, Initial residual = 0.0138324, Final residual = 6.64815e-05, No Iterations 1
DILUPBiCGStab:  Solving for Uz, Initial residual = 0.00662088, Final residual = 5.34817e-05, No Iterations 1
DILUPBiCGStab:  Solving for h, Initial residual = 0.0128819, Final residual = 2.85453e-05, No Iterations 1
Min/max T:348.969 400
GAMG:  Solving for p_rgh, Initial residual = 0.000721498, Final residual = 4.96852e-06, No Iterations 7
time step continuity errors : sum local = 1.78655e-05, global = -8.08153e-06, cumulative = -0.0636176
Min/max rho:1000 1000
ExecutionTime = 87.55 s  ClockTime = 2836 s

Time = 33


Solving for fluid region air
DILUPBiCGStab:  Solving for Ux, Initial residual = 0.0033282, Final residual = 1.39783e-05, No Iterations 1
DILUPBiCGStab:  Solving for Uy, Initial residual = 0.00371842, Final residual = 1.46876e-05, No Iterations 1
DILUPBiCGStab:  Solving for Uz, Initial residual = 0.00373093, Final residual = 1.36463e-05, No Iterations 1
DILUPBiCGStab:  Solving for h, Initial residual = 0.010128, Final residual = 3.78911e-05, No Iterations 1
Min/max T:299.974 304.36
GAMG:  Solving for p_rgh, Initial residual = 0.0155097, Final residual = 8.87675e-05, No Iterations 4
time step continuity errors : sum local = 0.00025343, global = 5.60508e-05, cumulative = -0.0635615
Min/max rho:1.15307 1.17092
DILUPBiCGStab:  Solving for epsilon, Initial residual = 0.00573992, Final residual = 3.20436e-05, No Iterations 1
DILUPBiCGStab:  Solving for k, Initial residual = 0.0119471, Final residual = 4.42138e-05, No Iterations 1

Solving for fluid region porous
DILUPBiCGStab:  Solving for Ux, Initial residual = 0.00684076, Final residual = 3.24847e-05, No Iterations 1
DILUPBiCGStab:  Solving for Uy, Initial residual = 0.0133639, Final residual = 6.36706e-05, No Iterations 1
DILUPBiCGStab:  Solving for Uz, Initial residual = 0.00635912, Final residual = 5.02337e-05, No Iterations 1
DILUPBiCGStab:  Solving for h, Initial residual = 0.0126544, Final residual = 2.77458e-05, No Iterations 1
Min/max T:348.935 400
GAMG:  Solving for p_rgh, Initial residual = 0.000696483, Final residual = 4.78918e-06, No Iterations 7
time step continuity errors : sum local = 1.7031e-05, global = -7.70665e-06, cumulative = -0.0635693
Min/max rho:1000 1000
ExecutionTime = 88.75 s  ClockTime = 2837 s

Time = 34


Solving for fluid region air
DILUPBiCGStab:  Solving for Ux, Initial residual = 0.00328124, Final residual = 1.37008e-05, No Iterations 1
DILUPBiCGStab:  Solving for Uy, Initial residual = 0.00366578, Final residual = 1.43862e-05, No Iterations 1
DILUPBiCGStab:  Solving for Uz, Initial residual = 0.00367731, Final residual = 1.33457e-05, No Iterations 1
DILUPBiCGStab:  Solving for h, Initial residual = 0.00989507, Final residual = 3.67656e-05, No Iterations 1
Min/max T:299.974 304.487
GAMG:  Solving for p_rgh, Initial residual = 0.0151962, Final residual = 0.000138295, No Iterations 3
time step continuity errors : sum local = 0.000393105, global = -5.01802e-05, cumulative = -0.0636194
Min/max rho:1.15255 1.17092
DILUPBiCGStab:  Solving for epsilon, Initial residual = 0.00561196, Final residual = 3.14719e-05, No Iterations 1
DILUPBiCGStab:  Solving for k, Initial residual = 0.0116446, Final residual = 4.27778e-05, No Iterations 1

Solving for fluid region porous
DILUPBiCGStab:  Solving for Ux, Initial residual = 0.00658236, Final residual = 3.09641e-05, No Iterations 1
DILUPBiCGStab:  Solving for Uy, Initial residual = 0.0129241, Final residual = 6.10336e-05, No Iterations 1
DILUPBiCGStab:  Solving for Uz, Initial residual = 0.00611542, Final residual = 4.75e-05, No Iterations 1
DILUPBiCGStab:  Solving for h, Initial residual = 0.0124448, Final residual = 2.70623e-05, No Iterations 1
Min/max T:348.901 400
GAMG:  Solving for p_rgh, Initial residual = 0.000673432, Final residual = 4.622e-06, No Iterations 7
time step continuity errors : sum local = 1.63528e-05, global = -7.43108e-06, cumulative = -0.0636269
Min/max rho:1000 1000
ExecutionTime = 89.94 s  ClockTime = 2838 s

Time = 35


Solving for fluid region air
DILUPBiCGStab:  Solving for Ux, Initial residual = 0.00323907, Final residual = 1.34425e-05, No Iterations 1
DILUPBiCGStab:  Solving for Uy, Initial residual = 0.0036179, Final residual = 1.41055e-05, No Iterations 1
DILUPBiCGStab:  Solving for Uz, Initial residual = 0.0036243, Final residual = 1.307e-05, No Iterations 1
DILUPBiCGStab:  Solving for h, Initial residual = 0.00967613, Final residual = 3.56998e-05, No Iterations 1
Min/max T:299.974 304.61
GAMG:  Solving for p_rgh, Initial residual = 0.0148836, Final residual = 0.000146517, No Iterations 3
time step continuity errors : sum local = 0.000414724, global = -5.855e-05, cumulative = -0.0636854
Min/max rho:1.15206 1.17092
DILUPBiCGStab:  Solving for epsilon, Initial residual = 0.00548972, Final residual = 3.08353e-05, No Iterations 1
DILUPBiCGStab:  Solving for k, Initial residual = 0.011357, Final residual = 4.14446e-05, No Iterations 1

Solving for fluid region porous
DILUPBiCGStab:  Solving for Ux, Initial residual = 0.00634907, Final residual = 2.95823e-05, No Iterations 1
DILUPBiCGStab:  Solving for Uy, Initial residual = 0.0125102, Final residual = 5.85675e-05, No Iterations 1
DILUPBiCGStab:  Solving for Uz, Initial residual = 0.00588802, Final residual = 4.49903e-05, No Iterations 1
DILUPBiCGStab:  Solving for h, Initial residual = 0.0122476, Final residual = 2.64153e-05, No Iterations 1
Min/max T:348.867 400
GAMG:  Solving for p_rgh, Initial residual = 0.000651139, Final residual = 4.48705e-06, No Iterations 7
time step continuity errors : sum local = 1.57339e-05, global = -7.14489e-06, cumulative = -0.0636926
Min/max rho:1000 1000
ExecutionTime = 91.14 s  ClockTime = 2840 s

Time = 36


Solving for fluid region air
DILUPBiCGStab:  Solving for Ux, Initial residual = 0.00319786, Final residual = 1.31881e-05, No Iterations 1
DILUPBiCGStab:  Solving for Uy, Initial residual = 0.00357096, Final residual = 1.38298e-05, No Iterations 1
DILUPBiCGStab:  Solving for Uz, Initial residual = 0.0035744, Final residual = 1.28057e-05, No Iterations 1
DILUPBiCGStab:  Solving for h, Initial residual = 0.00947, Final residual = 3.46902e-05, No Iterations 1
Min/max T:299.974 304.726
GAMG:  Solving for p_rgh, Initial residual = 0.014506, Final residual = 8.56438e-05, No Iterations 4
time step continuity errors : sum local = 0.000241494, global = 5.14216e-05, cumulative = -0.0636411
Min/max rho:1.1516 1.17092
DILUPBiCGStab:  Solving for epsilon, Initial residual = 0.00536944, Final residual = 3.01857e-05, No Iterations 1
DILUPBiCGStab:  Solving for k, Initial residual = 0.0110808, Final residual = 4.02011e-05, No Iterations 1

Solving for fluid region porous
DILUPBiCGStab:  Solving for Ux, Initial residual = 0.0061287, Final residual = 2.82864e-05, No Iterations 1
DILUPBiCGStab:  Solving for Uy, Initial residual = 0.0121201, Final residual = 5.62742e-05, No Iterations 1
DILUPBiCGStab:  Solving for Uz, Initial residual = 0.00567537, Final residual = 4.26887e-05, No Iterations 1
DILUPBiCGStab:  Solving for h, Initial residual = 0.0120719, Final residual = 2.58033e-05, No Iterations 1
Min/max T:348.833 400
GAMG:  Solving for p_rgh, Initial residual = 0.000630238, Final residual = 4.36187e-06, No Iterations 7
time step continuity errors : sum local = 1.51821e-05, global = -6.92475e-06, cumulative = -0.0636481
Min/max rho:1000 1000
ExecutionTime = 92.55 s  ClockTime = 2841 s

Time = 37


Solving for fluid region air
DILUPBiCGStab:  Solving for Ux, Initial residual = 0.00315719, Final residual = 1.29425e-05, No Iterations 1
DILUPBiCGStab:  Solving for Uy, Initial residual = 0.00352483, Final residual = 1.35624e-05, No Iterations 1
DILUPBiCGStab:  Solving for Uz, Initial residual = 0.00352791, Final residual = 1.25551e-05, No Iterations 1
DILUPBiCGStab:  Solving for h, Initial residual = 0.00927569, Final residual = 3.37351e-05, No Iterations 1
Min/max T:299.974 304.838
GAMG:  Solving for p_rgh, Initial residual = 0.0142038, Final residual = 0.000126913, No Iterations 3
time step continuity errors : sum local = 0.000356637, global = -4.3908e-05, cumulative = -0.063692
Min/max rho:1.15115 1.17092
DILUPBiCGStab:  Solving for epsilon, Initial residual = 0.00525374, Final residual = 2.95562e-05, No Iterations 1
DILUPBiCGStab:  Solving for k, Initial residual = 0.0108155, Final residual = 3.90554e-05, No Iterations 1

Solving for fluid region porous
DILUPBiCGStab:  Solving for Ux, Initial residual = 0.00591974, Final residual = 2.70687e-05, No Iterations 1
DILUPBiCGStab:  Solving for Uy, Initial residual = 0.0117519, Final residual = 5.41373e-05, No Iterations 1
DILUPBiCGStab:  Solving for Uz, Initial residual = 0.0054761, Final residual = 4.0566e-05, No Iterations 1
DILUPBiCGStab:  Solving for h, Initial residual = 0.0119074, Final residual = 2.52738e-05, No Iterations 1
Min/max T:348.8 400
GAMG:  Solving for p_rgh, Initial residual = 0.000610848, Final residual = 4.25532e-06, No Iterations 7
time step continuity errors : sum local = 1.46969e-05, global = -6.72048e-06, cumulative = -0.0636987
Min/max rho:1000 1000
ExecutionTime = 93.7 s  ClockTime = 2842 s

Time = 38


Solving for fluid region air
DILUPBiCGStab:  Solving for Ux, Initial residual = 0.00312097, Final residual = 1.27138e-05, No Iterations 1
DILUPBiCGStab:  Solving for Uy, Initial residual = 0.00348316, Final residual = 1.33137e-05, No Iterations 1
DILUPBiCGStab:  Solving for Uz, Initial residual = 0.00348209, Final residual = 1.23223e-05, No Iterations 1
DILUPBiCGStab:  Solving for h, Initial residual = 0.00909202, Final residual = 3.28313e-05, No Iterations 1
Min/max T:299.974 304.944
GAMG:  Solving for p_rgh, Initial residual = 0.0139563, Final residual = 0.000132659, No Iterations 3
time step continuity errors : sum local = 0.000371535, global = -4.99291e-05, cumulative = -0.0637486
Min/max rho:1.15072 1.17092
DILUPBiCGStab:  Solving for epsilon, Initial residual = 0.00514286, Final residual = 2.89452e-05, No Iterations 1
DILUPBiCGStab:  Solving for k, Initial residual = 0.0105603, Final residual = 3.79951e-05, No Iterations 1

Solving for fluid region porous
DILUPBiCGStab:  Solving for Ux, Initial residual = 0.00572124, Final residual = 2.59295e-05, No Iterations 1
DILUPBiCGStab:  Solving for Uy, Initial residual = 0.011404, Final residual = 5.21588e-05, No Iterations 1
DILUPBiCGStab:  Solving for Uz, Initial residual = 0.00528901, Final residual = 3.85894e-05, No Iterations 1
DILUPBiCGStab:  Solving for h, Initial residual = 0.0117542, Final residual = 2.47354e-05, No Iterations 1
Min/max T:348.767 400
GAMG:  Solving for p_rgh, Initial residual = 0.000592443, Final residual = 4.15177e-06, No Iterations 7
time step continuity errors : sum local = 1.42249e-05, global = -6.54161e-06, cumulative = -0.0637552
Min/max rho:1000 1000
ExecutionTime = 94.94 s  ClockTime = 2844 s

Time = 39


Solving for fluid region air
DILUPBiCGStab:  Solving for Ux, Initial residual = 0.00308478, Final residual = 1.24901e-05, No Iterations 1
DILUPBiCGStab:  Solving for Uy, Initial residual = 0.00344159, Final residual = 1.30718e-05, No Iterations 1
DILUPBiCGStab:  Solving for Uz, Initial residual = 0.00343883, Final residual = 1.21026e-05, No Iterations 1
DILUPBiCGStab:  Solving for h, Initial residual = 0.0089181, Final residual = 3.19775e-05, No Iterations 1
Min/max T:299.974 305.045
GAMG:  Solving for p_rgh, Initial residual = 0.013743, Final residual = 0.000136838, No Iterations 3
time step continuity errors : sum local = 0.00038209, global = -5.52608e-05, cumulative = -0.0638104
Min/max rho:1.15032 1.17092
DILUPBiCGStab:  Solving for epsilon, Initial residual = 0.00503586, Final residual = 2.83797e-05, No Iterations 1
DILUPBiCGStab:  Solving for k, Initial residual = 0.0103138, Final residual = 3.69863e-05, No Iterations 1

Solving for fluid region porous
DILUPBiCGStab:  Solving for Ux, Initial residual = 0.00553248, Final residual = 2.48598e-05, No Iterations 1
DILUPBiCGStab:  Solving for Uy, Initial residual = 0.0110744, Final residual = 5.02807e-05, No Iterations 1
DILUPBiCGStab:  Solving for Uz, Initial residual = 0.00511304, Final residual = 3.67641e-05, No Iterations 1
DILUPBiCGStab:  Solving for h, Initial residual = 0.0116152, Final residual = 2.4277e-05, No Iterations 1
Min/max T:348.733 400
GAMG:  Solving for p_rgh, Initial residual = 0.000574986, Final residual = 4.05357e-06, No Iterations 7
time step continuity errors : sum local = 1.38033e-05, global = -6.38744e-06, cumulative = -0.0638168
Min/max rho:1000 1000
ExecutionTime = 96.34 s  ClockTime = 2845 s

Time = 40


Solving for fluid region air
DILUPBiCGStab:  Solving for Ux, Initial residual = 0.00304935, Final residual = 1.22725e-05, No Iterations 1
DILUPBiCGStab:  Solving for Uy, Initial residual = 0.00340092, Final residual = 1.28373e-05, No Iterations 1
DILUPBiCGStab:  Solving for Uz, Initial residual = 0.00339737, Final residual = 1.19001e-05, No Iterations 1
DILUPBiCGStab:  Solving for h, Initial residual = 0.00875309, Final residual = 3.11701e-05, No Iterations 1
Min/max T:299.974 305.141
GAMG:  Solving for p_rgh, Initial residual = 0.0135635, Final residual = 0.000134805, No Iterations 3
time step continuity errors : sum local = 0.000375403, global = -5.53516e-05, cumulative = -0.0638722
Min/max rho:1.14993 1.17092
DILUPBiCGStab:  Solving for epsilon, Initial residual = 0.00493442, Final residual = 2.78129e-05, No Iterations 1
DILUPBiCGStab:  Solving for k, Initial residual = 0.0100775, Final residual = 3.60039e-05, No Iterations 1

Solving for fluid region porous
DILUPBiCGStab:  Solving for Ux, Initial residual = 0.00535284, Final residual = 2.38486e-05, No Iterations 1
DILUPBiCGStab:  Solving for Uy, Initial residual = 0.010762, Final residual = 4.85018e-05, No Iterations 1
DILUPBiCGStab:  Solving for Uz, Initial residual = 0.00494723, Final residual = 3.51152e-05, No Iterations 1
DILUPBiCGStab:  Solving for h, Initial residual = 0.011489, Final residual = 2.3846e-05, No Iterations 1
Min/max T:348.701 400
GAMG:  Solving for p_rgh, Initial residual = 0.000558965, Final residual = 3.95266e-06, No Iterations 7
time step continuity errors : sum local = 1.33808e-05, global = -6.22136e-06, cumulative = -0.0638784
Min/max rho:1000 1000
ExecutionTime = 97.62 s  ClockTime = 2846 s

Time = 41


Solving for fluid region air
DILUPBiCGStab:  Solving for Ux, Initial residual = 0.00301532, Final residual = 1.20627e-05, No Iterations 1
DILUPBiCGStab:  Solving for Uy, Initial residual = 0.00336167, Final residual = 1.26105e-05, No Iterations 1
DILUPBiCGStab:  Solving for Uz, Initial residual = 0.00335709, Final residual = 1.17148e-05, No Iterations 1
DILUPBiCGStab:  Solving for h, Initial residual = 0.0085964, Final residual = 3.04073e-05, No Iterations 1
Min/max T:299.974 305.232
GAMG:  Solving for p_rgh, Initial residual = 0.0133935, Final residual = 0.000129065, No Iterations 3
time step continuity errors : sum local = 0.000358546, global = -5.17692e-05, cumulative = -0.0639302
Min/max rho:1.14957 1.17092
DILUPBiCGStab:  Solving for epsilon, Initial residual = 0.00483724, Final residual = 2.72751e-05, No Iterations 1
DILUPBiCGStab:  Solving for k, Initial residual = 0.00985331, Final residual = 3.50543e-05, No Iterations 1

Solving for fluid region porous
DILUPBiCGStab:  Solving for Ux, Initial residual = 0.00518157, Final residual = 2.28955e-05, No Iterations 1
DILUPBiCGStab:  Solving for Uy, Initial residual = 0.0104655, Final residual = 4.68326e-05, No Iterations 1
DILUPBiCGStab:  Solving for Uz, Initial residual = 0.00479075, Final residual = 3.36111e-05, No Iterations 1
DILUPBiCGStab:  Solving for h, Initial residual = 0.0113725, Final residual = 2.34293e-05, No Iterations 1
Min/max T:348.668 400
GAMG:  Solving for p_rgh, Initial residual = 0.000544382, Final residual = 3.86075e-06, No Iterations 7
time step continuity errors : sum local = 1.29825e-05, global = -6.06331e-06, cumulative = -0.0639362
Min/max rho:1000 1000
ExecutionTime = 99.26 s  ClockTime = 2848 s

Time = 42


Solving for fluid region air
DILUPBiCGStab:  Solving for Ux, Initial residual = 0.00298272, Final residual = 1.18602e-05, No Iterations 1
DILUPBiCGStab:  Solving for Uy, Initial residual = 0.0033239, Final residual = 1.23906e-05, No Iterations 1
DILUPBiCGStab:  Solving for Uz, Initial residual = 0.00331786, Final residual = 1.15433e-05, No Iterations 1
DILUPBiCGStab:  Solving for h, Initial residual = 0.00844742, Final residual = 2.96878e-05, No Iterations 1
Min/max T:299.974 305.319
GAMG:  Solving for p_rgh, Initial residual = 0.0132252, Final residual = 0.000123493, No Iterations 3
time step continuity errors : sum local = 0.000342309, global = -4.77345e-05, cumulative = -0.063984
Min/max rho:1.14922 1.17092
DILUPBiCGStab:  Solving for epsilon, Initial residual = 0.00474156, Final residual = 2.67436e-05, No Iterations 1
DILUPBiCGStab:  Solving for k, Initial residual = 0.00963616, Final residual = 3.41397e-05, No Iterations 1

Solving for fluid region porous
DILUPBiCGStab:  Solving for Ux, Initial residual = 0.00501811, Final residual = 2.19966e-05, No Iterations 1
DILUPBiCGStab:  Solving for Uy, Initial residual = 0.0101837, Final residual = 4.52698e-05, No Iterations 1
DILUPBiCGStab:  Solving for Uz, Initial residual = 0.00464282, Final residual = 3.21767e-05, No Iterations 1
DILUPBiCGStab:  Solving for h, Initial residual = 0.0112641, Final residual = 2.30789e-05, No Iterations 1
Min/max T:348.636 400
GAMG:  Solving for p_rgh, Initial residual = 0.000530096, Final residual = 3.76556e-06, No Iterations 7
time step continuity errors : sum local = 1.26038e-05, global = -5.90268e-06, cumulative = -0.0639899
Min/max rho:1000 1000
ExecutionTime = 100.96 s  ClockTime = 2850 s

Time = 43


Solving for fluid region air
DILUPBiCGStab:  Solving for Ux, Initial residual = 0.00295125, Final residual = 1.16638e-05, No Iterations 1
DILUPBiCGStab:  Solving for Uy, Initial residual = 0.00328716, Final residual = 1.21775e-05, No Iterations 1
DILUPBiCGStab:  Solving for Uz, Initial residual = 0.00328015, Final residual = 1.13786e-05, No Iterations 1
DILUPBiCGStab:  Solving for h, Initial residual = 0.00830555, Final residual = 2.90078e-05, No Iterations 1
Min/max T:299.975 305.401
GAMG:  Solving for p_rgh, Initial residual = 0.0130679, Final residual = 0.000120019, No Iterations 3
time step continuity errors : sum local = 0.000331996, global = -4.52767e-05, cumulative = -0.0640351
Min/max rho:1.14889 1.17092
DILUPBiCGStab:  Solving for epsilon, Initial residual = 0.00464948, Final residual = 2.62061e-05, No Iterations 1
DILUPBiCGStab:  Solving for k, Initial residual = 0.00942625, Final residual = 3.32536e-05, No Iterations 1

Solving for fluid region porous
DILUPBiCGStab:  Solving for Ux, Initial residual = 0.00486195, Final residual = 2.11475e-05, No Iterations 1
DILUPBiCGStab:  Solving for Uy, Initial residual = 0.00991565, Final residual = 4.37934e-05, No Iterations 1
DILUPBiCGStab:  Solving for Uz, Initial residual = 0.0045028, Final residual = 3.08304e-05, No Iterations 1
DILUPBiCGStab:  Solving for h, Initial residual = 0.0111697, Final residual = 2.27172e-05, No Iterations 1
Min/max T:348.605 400
GAMG:  Solving for p_rgh, Initial residual = 0.000516636, Final residual = 3.67278e-06, No Iterations 7
time step continuity errors : sum local = 1.22077e-05, global = -5.76733e-06, cumulative = -0.0640409
Min/max rho:1000 1000
ExecutionTime = 102.38 s  ClockTime = 2851 s

Time = 44


Solving for fluid region air
DILUPBiCGStab:  Solving for Ux, Initial residual = 0.00292072, Final residual = 1.1473e-05, No Iterations 1
DILUPBiCGStab:  Solving for Uy, Initial residual = 0.00325143, Final residual = 1.19716e-05, No Iterations 1
DILUPBiCGStab:  Solving for Uz, Initial residual = 0.00324391, Final residual = 1.1221e-05, No Iterations 1
DILUPBiCGStab:  Solving for h, Initial residual = 0.00817034, Final residual = 2.83647e-05, No Iterations 1
Min/max T:299.975 305.479
GAMG:  Solving for p_rgh, Initial residual = 0.0129106, Final residual = 0.000118099, No Iterations 3
time step continuity errors : sum local = 0.000326057, global = -4.44137e-05, cumulative = -0.0640853
Min/max rho:1.14858 1.17092
DILUPBiCGStab:  Solving for epsilon, Initial residual = 0.00456274, Final residual = 2.56748e-05, No Iterations 1
DILUPBiCGStab:  Solving for k, Initial residual = 0.00922284, Final residual = 3.24132e-05, No Iterations 1

Solving for fluid region porous
DILUPBiCGStab:  Solving for Ux, Initial residual = 0.0047129, Final residual = 2.03466e-05, No Iterations 1
DILUPBiCGStab:  Solving for Uy, Initial residual = 0.00966028, Final residual = 4.24079e-05, No Iterations 1
DILUPBiCGStab:  Solving for Uz, Initial residual = 0.00437006, Final residual = 2.95463e-05, No Iterations 1
DILUPBiCGStab:  Solving for h, Initial residual = 0.011083, Final residual = 2.24154e-05, No Iterations 1
Min/max T:348.574 400
GAMG:  Solving for p_rgh, Initial residual = 0.000503971, Final residual = 3.55904e-06, No Iterations 7
time step continuity errors : sum local = 1.17572e-05, global = -5.54904e-06, cumulative = -0.0640909
Min/max rho:1000 1000
ExecutionTime = 103.67 s  ClockTime = 2852 s

Time = 45


Solving for fluid region air
DILUPBiCGStab:  Solving for Ux, Initial residual = 0.00289098, Final residual = 1.12865e-05, No Iterations 1
DILUPBiCGStab:  Solving for Uy, Initial residual = 0.00321651, Final residual = 1.17704e-05, No Iterations 1
DILUPBiCGStab:  Solving for Uz, Initial residual = 0.00320929, Final residual = 1.1071e-05, No Iterations 1
DILUPBiCGStab:  Solving for h, Initial residual = 0.00804124, Final residual = 2.77562e-05, No Iterations 1
Min/max T:299.975 305.554
GAMG:  Solving for p_rgh, Initial residual = 0.0127872, Final residual = 0.000116593, No Iterations 3
time step continuity errors : sum local = 0.000321353, global = -4.41078e-05, cumulative = -0.064135
Min/max rho:1.14828 1.17092
[...]
DILUPBiCGStab:  Solving for Uz, Initial residual = 0.000243405, Final residual = 1.10825e-06, No Iterations 1
DILUPBiCGStab:  Solving for h, Initial residual = 8.33058e-05, Final residual = 2.57216e-07, No Iterations 1
Min/max T:391.201 400
GAMG:  Solving for p_rgh, Initial residual = 7.5138e-05, Final residual = 6.10567e-07, No Iterations 7
time step continuity errors : sum local = 1.89445e-06, global = -1.16782e-07, cumulative = -0.0661237
Min/max rho:1000 1000
ExecutionTime = 320.56 s  ClockTime = 3069 s

Time = 215


Solving for fluid region air
DILUPBiCGStab:  Solving for Ux, Initial residual = 0.00137828, Final residual = 4.61896e-06, No Iterations 1
DILUPBiCGStab:  Solving for Uy, Initial residual = 0.00131158, Final residual = 4.38236e-06, No Iterations 1
DILUPBiCGStab:  Solving for Uz, Initial residual = 0.00122918, Final residual = 4.08253e-06, No Iterations 1
DILUPBiCGStab:  Solving for h, Initial residual = 0.00221101, Final residual = 6.46977e-06, No Iterations 1
Min/max T:299.975 309.522
GAMG:  Solving for p_rgh, Initial residual = 0.00347831, Final residual = 1.3589e-05, No Iterations 3
time step continuity errors : sum local = 3.70436e-05, global = 1.32665e-05, cumulative = -0.0661104
Min/max rho:1.13262 1.17092
DILUPBiCGStab:  Solving for epsilon, Initial residual = 0.00141198, Final residual = 6.14925e-06, No Iterations 1
DILUPBiCGStab:  Solving for k, Initial residual = 0.0022421, Final residual = 7.18657e-06, No Iterations 1

Solving for fluid region porous
DILUPBiCGStab:  Solving for Ux, Initial residual = 9.34439e-05, Final residual = 2.93499e-07, No Iterations 1
DILUPBiCGStab:  Solving for Uy, Initial residual = 0.00126777, Final residual = 2.80427e-06, No Iterations 1
DILUPBiCGStab:  Solving for Uz, Initial residual = 0.000237943, Final residual = 1.08646e-06, No Iterations 1
DILUPBiCGStab:  Solving for h, Initial residual = 8.17653e-05, Final residual = 2.50836e-07, No Iterations 1
Min/max T:391.2 400
GAMG:  Solving for p_rgh, Initial residual = 7.51522e-05, Final residual = 6.09003e-07, No Iterations 7
time step continuity errors : sum local = 1.90555e-06, global = -1.25549e-07, cumulative = -0.0661105
Min/max rho:1000 1000
ExecutionTime = 321.62 s  ClockTime = 3070 s

Time = 216


Solving for fluid region air
DILUPBiCGStab:  Solving for Ux, Initial residual = 0.00137487, Final residual = 4.60647e-06, No Iterations 1
DILUPBiCGStab:  Solving for Uy, Initial residual = 0.00130792, Final residual = 4.37135e-06, No Iterations 1
DILUPBiCGStab:  Solving for Uz, Initial residual = 0.00122432, Final residual = 4.06832e-06, No Iterations 1
DILUPBiCGStab:  Solving for h, Initial residual = 0.00220288, Final residual = 6.44259e-06, No Iterations 1
Min/max T:299.975 309.535
GAMG:  Solving for p_rgh, Initial residual = 0.00346123, Final residual = 1.38368e-05, No Iterations 3
time step continuity errors : sum local = 3.77514e-05, global = 1.40029e-05, cumulative = -0.0660965
Min/max rho:1.13256 1.17092
DILUPBiCGStab:  Solving for epsilon, Initial residual = 0.00140905, Final residual = 6.13268e-06, No Iterations 1
DILUPBiCGStab:  Solving for k, Initial residual = 0.00223733, Final residual = 7.16675e-06, No Iterations 1

Solving for fluid region porous
DILUPBiCGStab:  Solving for Ux, Initial residual = 9.04747e-05, Final residual = 2.83708e-07, No Iterations 1
DILUPBiCGStab:  Solving for Uy, Initial residual = 0.00124586, Final residual = 2.73349e-06, No Iterations 1
DILUPBiCGStab:  Solving for Uz, Initial residual = 0.000232591, Final residual = 1.06487e-06, No Iterations 1
DILUPBiCGStab:  Solving for h, Initial residual = 8.0288e-05, Final residual = 2.4479e-07, No Iterations 1
Min/max T:391.199 400
GAMG:  Solving for p_rgh, Initial residual = 7.51067e-05, Final residual = 6.08028e-07, No Iterations 7
time step continuity errors : sum local = 1.90256e-06, global = -1.16499e-07, cumulative = -0.0660966
Min/max rho:1000 1000
ExecutionTime = 322.66 s  ClockTime = 3071 s

Time = 217


Solving for fluid region air
DILUPBiCGStab:  Solving for Ux, Initial residual = 0.00137146, Final residual = 4.59395e-06, No Iterations 1
DILUPBiCGStab:  Solving for Uy, Initial residual = 0.00130429, Final residual = 4.36035e-06, No Iterations 1
DILUPBiCGStab:  Solving for Uz, Initial residual = 0.00121948, Final residual = 4.05425e-06, No Iterations 1
DILUPBiCGStab:  Solving for h, Initial residual = 0.00219484, Final residual = 6.4157e-06, No Iterations 1
Min/max T:299.975 309.548
GAMG:  Solving for p_rgh, Initial residual = 0.00344299, Final residual = 1.41462e-05, No Iterations 3
time step continuity errors : sum local = 3.86289e-05, global = 1.46831e-05, cumulative = -0.0660819
Min/max rho:1.13251 1.17092
DILUPBiCGStab:  Solving for epsilon, Initial residual = 0.00140618, Final residual = 6.11728e-06, No Iterations 1
DILUPBiCGStab:  Solving for k, Initial residual = 0.00223265, Final residual = 7.14726e-06, No Iterations 1

Solving for fluid region porous
DILUPBiCGStab:  Solving for Ux, Initial residual = 8.7573e-05, Final residual = 2.74189e-07, No Iterations 1
DILUPBiCGStab:  Solving for Uy, Initial residual = 0.00122377, Final residual = 2.66383e-06, No Iterations 1
DILUPBiCGStab:  Solving for Uz, Initial residual = 0.000227315, Final residual = 1.04364e-06, No Iterations 1
DILUPBiCGStab:  Solving for h, Initial residual = 7.8878e-05, Final residual = 2.39102e-07, No Iterations 1
Min/max T:391.198 400
GAMG:  Solving for p_rgh, Initial residual = 7.50744e-05, Final residual = 6.07007e-07, No Iterations 7
time step continuity errors : sum local = 1.89184e-06, global = -1.21948e-07, cumulative = -0.0660821
Min/max rho:1000 1000
ExecutionTime = 323.77 s  ClockTime = 3072 s

Time = 218


Solving for fluid region air
DILUPBiCGStab:  Solving for Ux, Initial residual = 0.00136806, Final residual = 4.58151e-06, No Iterations 1
DILUPBiCGStab:  Solving for Uy, Initial residual = 0.00130068, Final residual = 4.34944e-06, No Iterations 1
DILUPBiCGStab:  Solving for Uz, Initial residual = 0.00121469, Final residual = 4.04027e-06, No Iterations 1
DILUPBiCGStab:  Solving for h, Initial residual = 0.00218691, Final residual = 6.3892e-06, No Iterations 1
Min/max T:299.975 309.561
GAMG:  Solving for p_rgh, Initial residual = 0.00342674, Final residual = 1.46308e-05, No Iterations 3
time step continuity errors : sum local = 3.99874e-05, global = 1.5486e-05, cumulative = -0.0660666
Min/max rho:1.13246 1.17092
DILUPBiCGStab:  Solving for epsilon, Initial residual = 0.00140337, Final residual = 6.10275e-06, No Iterations 1
DILUPBiCGStab:  Solving for k, Initial residual = 0.00222807, Final residual = 7.1279e-06, No Iterations 1

Solving for fluid region porous
DILUPBiCGStab:  Solving for Ux, Initial residual = 8.47371e-05, Final residual = 2.64936e-07, No Iterations 1
DILUPBiCGStab:  Solving for Uy, Initial residual = 0.0012015, Final residual = 2.59499e-06, No Iterations 1
DILUPBiCGStab:  Solving for Uz, Initial residual = 0.000222107, Final residual = 1.02266e-06, No Iterations 1
DILUPBiCGStab:  Solving for h, Initial residual = 7.7542e-05, Final residual = 2.33675e-07, No Iterations 1
Min/max T:391.197 400
GAMG:  Solving for p_rgh, Initial residual = 7.50224e-05, Final residual = 6.04276e-07, No Iterations 7
time step continuity errors : sum local = 1.90011e-06, global = -1.09401e-07, cumulative = -0.0660667
Min/max rho:1000 1000
ExecutionTime = 324.89 s  ClockTime = 3074 s

Time = 219


Solving for fluid region air
DILUPBiCGStab:  Solving for Ux, Initial residual = 0.0013647, Final residual = 4.56916e-06, No Iterations 1
DILUPBiCGStab:  Solving for Uy, Initial residual = 0.00129709, Final residual = 4.3386e-06, No Iterations 1
DILUPBiCGStab:  Solving for Uz, Initial residual = 0.00120993, Final residual = 4.02634e-06, No Iterations 1
DILUPBiCGStab:  Solving for h, Initial residual = 0.00217906, Final residual = 6.36287e-06, No Iterations 1
Min/max T:299.975 309.573
GAMG:  Solving for p_rgh, Initial residual = 0.00341318, Final residual = 1.5145e-05, No Iterations 3
time step continuity errors : sum local = 4.14293e-05, global = 1.61176e-05, cumulative = -0.0660506
Min/max rho:1.13241 1.17092
DILUPBiCGStab:  Solving for epsilon, Initial residual = 0.00140058, Final residual = 6.08776e-06, No Iterations 1
DILUPBiCGStab:  Solving for k, Initial residual = 0.00222359, Final residual = 7.10877e-06, No Iterations 1

Solving for fluid region porous
DILUPBiCGStab:  Solving for Ux, Initial residual = 8.19676e-05, Final residual = 2.55943e-07, No Iterations 1
DILUPBiCGStab:  Solving for Uy, Initial residual = 0.00117906, Final residual = 2.52697e-06, No Iterations 1
DILUPBiCGStab:  Solving for Uz, Initial residual = 0.000216972, Final residual = 1.00193e-06, No Iterations 1
DILUPBiCGStab:  Solving for h, Initial residual = 7.62686e-05, Final residual = 2.2849e-07, No Iterations 1
Min/max T:391.196 400
GAMG:  Solving for p_rgh, Initial residual = 7.49271e-05, Final residual = 6.04525e-07, No Iterations 7
time step continuity errors : sum local = 1.89493e-06, global = -1.18689e-07, cumulative = -0.0660507
Min/max rho:1000 1000
ExecutionTime = 326 s  ClockTime = 3075 s

Time = 220


Solving for fluid region air
DILUPBiCGStab:  Solving for Ux, Initial residual = 0.00136135, Final residual = 4.55691e-06, No Iterations 1
DILUPBiCGStab:  Solving for Uy, Initial residual = 0.00129351, Final residual = 4.32782e-06, No Iterations 1
DILUPBiCGStab:  Solving for Uz, Initial residual = 0.00120521, Final residual = 4.0125e-06, No Iterations 1
DILUPBiCGStab:  Solving for h, Initial residual = 0.00217132, Final residual = 6.33685e-06, No Iterations 1
Min/max T:299.975 309.586
GAMG:  Solving for p_rgh, Initial residual = 0.0033983, Final residual = 1.55276e-05, No Iterations 3
time step continuity errors : sum local = 4.25138e-05, global = 1.64817e-05, cumulative = -0.0660342
Min/max rho:1.13236 1.17092
DILUPBiCGStab:  Solving for epsilon, Initial residual = 0.00139782, Final residual = 6.07205e-06, No Iterations 1
DILUPBiCGStab:  Solving for k, Initial residual = 0.00221918, Final residual = 7.09006e-06, No Iterations 1

Solving for fluid region porous
DILUPBiCGStab:  Solving for Ux, Initial residual = 7.92622e-05, Final residual = 2.47211e-07, No Iterations 1
DILUPBiCGStab:  Solving for Uy, Initial residual = 0.00115648, Final residual = 2.45978e-06, No Iterations 1
DILUPBiCGStab:  Solving for Uz, Initial residual = 0.000211905, Final residual = 9.8141e-07, No Iterations 1
DILUPBiCGStab:  Solving for h, Initial residual = 7.50448e-05, Final residual = 2.23574e-07, No Iterations 1
Min/max T:391.195 400
GAMG:  Solving for p_rgh, Initial residual = 7.48368e-05, Final residual = 6.03181e-07, No Iterations 7
time step continuity errors : sum local = 1.8879e-06, global = -1.08991e-07, cumulative = -0.0660343
Min/max rho:1000 1000
ExecutionTime = 327.19 s  ClockTime = 3076 s

Time = 221


Solving for fluid region air
DILUPBiCGStab:  Solving for Ux, Initial residual = 0.001358, Final residual = 4.54469e-06, No Iterations 1
DILUPBiCGStab:  Solving for Uy, Initial residual = 0.00128998, Final residual = 4.31723e-06, No Iterations 1
DILUPBiCGStab:  Solving for Uz, Initial residual = 0.00120052, Final residual = 3.99876e-06, No Iterations 1
DILUPBiCGStab:  Solving for h, Initial residual = 0.00216366, Final residual = 6.31116e-06, No Iterations 1
Min/max T:299.975 309.598
GAMG:  Solving for p_rgh, Initial residual = 0.00338197, Final residual = 1.57344e-05, No Iterations 3
time step continuity errors : sum local = 4.31188e-05, global = 1.66262e-05, cumulative = -0.0660177
Min/max rho:1.13232 1.17092
DILUPBiCGStab:  Solving for epsilon, Initial residual = 0.00139513, Final residual = 6.05569e-06, No Iterations 1
DILUPBiCGStab:  Solving for k, Initial residual = 0.00221482, Final residual = 7.07168e-06, No Iterations 1

Solving for fluid region porous
DILUPBiCGStab:  Solving for Ux, Initial residual = 7.66211e-05, Final residual = 2.38736e-07, No Iterations 1
DILUPBiCGStab:  Solving for Uy, Initial residual = 0.00113378, Final residual = 2.39378e-06, No Iterations 1
DILUPBiCGStab:  Solving for Uz, Initial residual = 0.000206943, Final residual = 9.61044e-07, No Iterations 1
DILUPBiCGStab:  Solving for h, Initial residual = 7.38618e-05, Final residual = 2.18878e-07, No Iterations 1
Min/max T:391.193 400
GAMG:  Solving for p_rgh, Initial residual = 7.46891e-05, Final residual = 6.06553e-07, No Iterations 7
time step continuity errors : sum local = 1.89072e-06, global = -1.18535e-07, cumulative = -0.0660178
Min/max rho:1000 1000
ExecutionTime = 328.25 s  ClockTime = 3077 s

Time = 222


Solving for fluid region air
DILUPBiCGStab:  Solving for Ux, Initial residual = 0.00135467, Final residual = 4.53255e-06, No Iterations 1
DILUPBiCGStab:  Solving for Uy, Initial residual = 0.00128646, Final residual = 4.30678e-06, No Iterations 1
DILUPBiCGStab:  Solving for Uz, Initial residual = 0.00119587, Final residual = 3.9851e-06, No Iterations 1
DILUPBiCGStab:  Solving for h, Initial residual = 0.00215608, Final residual = 6.28571e-06, No Iterations 1
Min/max T:299.975 309.611
GAMG:  Solving for p_rgh, Initial residual = 0.00336812, Final residual = 1.57868e-05, No Iterations 3
time step continuity errors : sum local = 4.33015e-05, global = 1.66236e-05, cumulative = -0.0660012
Min/max rho:1.13227 1.17092
DILUPBiCGStab:  Solving for epsilon, Initial residual = 0.00139245, Final residual = 6.03909e-06, No Iterations 1
DILUPBiCGStab:  Solving for k, Initial residual = 0.00221051, Final residual = 7.05357e-06, No Iterations 1

Solving for fluid region porous
DILUPBiCGStab:  Solving for Ux, Initial residual = 7.4046e-05, Final residual = 2.3051e-07, No Iterations 1
DILUPBiCGStab:  Solving for Uy, Initial residual = 0.00111098, Final residual = 2.32865e-06, No Iterations 1
DILUPBiCGStab:  Solving for Uz, Initial residual = 0.00020209, Final residual = 9.40878e-07, No Iterations 1
DILUPBiCGStab:  Solving for h, Initial residual = 7.27203e-05, Final residual = 2.1441e-07, No Iterations 1
Min/max T:391.192 400
GAMG:  Solving for p_rgh, Initial residual = 7.44897e-05, Final residual = 5.99456e-07, No Iterations 7
time step continuity errors : sum local = 1.88918e-06, global = -1.01314e-07, cumulative = -0.0660013
Min/max rho:1000 1000
ExecutionTime = 329.44 s  ClockTime = 3078 s

Time = 223


Solving for fluid region air
DILUPBiCGStab:  Solving for Ux, Initial residual = 0.00135134, Final residual = 4.52058e-06, No Iterations 1
DILUPBiCGStab:  Solving for Uy, Initial residual = 0.00128296, Final residual = 4.29635e-06, No Iterations 1
DILUPBiCGStab:  Solving for Uz, Initial residual = 0.00119126, Final residual = 3.97155e-06, No Iterations 1
DILUPBiCGStab:  Solving for h, Initial residual = 0.0021486, Final residual = 6.26044e-06, No Iterations 1
Min/max T:299.975 309.623
GAMG:  Solving for p_rgh, Initial residual = 0.00335115, Final residual = 1.57757e-05, No Iterations 3
time step continuity errors : sum local = 4.33107e-05, global = 1.65561e-05, cumulative = -0.0659847
Min/max rho:1.13222 1.17092
DILUPBiCGStab:  Solving for epsilon, Initial residual = 0.00138978, Final residual = 6.02156e-06, No Iterations 1
DILUPBiCGStab:  Solving for k, Initial residual = 0.00220628, Final residual = 7.0359e-06, No Iterations 1

Solving for fluid region porous
DILUPBiCGStab:  Solving for Ux, Initial residual = 7.15367e-05, Final residual = 2.22523e-07, No Iterations 1
DILUPBiCGStab:  Solving for Uy, Initial residual = 0.0010881, Final residual = 2.26449e-06, No Iterations 1
DILUPBiCGStab:  Solving for Uz, Initial residual = 0.000197301, Final residual = 9.20882e-07, No Iterations 1
DILUPBiCGStab:  Solving for h, Initial residual = 7.16191e-05, Final residual = 2.10152e-07, No Iterations 1
Min/max T:391.191 400
GAMG:  Solving for p_rgh, Initial residual = 7.42912e-05, Final residual = 5.98626e-07, No Iterations 7
time step continuity errors : sum local = 1.87362e-06, global = -1.00541e-07, cumulative = -0.0659848
Min/max rho:1000 1000
ExecutionTime = 330.71 s  ClockTime = 3079 s

Time = 224


Solving for fluid region air
DILUPBiCGStab:  Solving for Ux, Initial residual = 0.00134803, Final residual = 4.50886e-06, No Iterations 1
DILUPBiCGStab:  Solving for Uy, Initial residual = 0.00127949, Final residual = 4.286e-06, No Iterations 1
DILUPBiCGStab:  Solving for Uz, Initial residual = 0.00118667, Final residual = 3.95797e-06, No Iterations 1
DILUPBiCGStab:  Solving for h, Initial residual = 0.00214121, Final residual = 6.23544e-06, No Iterations 1
Min/max T:299.975 309.635
GAMG:  Solving for p_rgh, Initial residual = 0.0033349, Final residual = 1.57771e-05, No Iterations 3
time step continuity errors : sum local = 4.33548e-05, global = 1.65006e-05, cumulative = -0.0659683
Min/max rho:1.13217 1.17092
DILUPBiCGStab:  Solving for epsilon, Initial residual = 0.00138711, Final residual = 6.00284e-06, No Iterations 1
DILUPBiCGStab:  Solving for k, Initial residual = 0.00220211, Final residual = 7.01858e-06, No Iterations 1

Solving for fluid region porous
DILUPBiCGStab:  Solving for Ux, Initial residual = 6.90909e-05, Final residual = 2.14777e-07, No Iterations 1
DILUPBiCGStab:  Solving for Uy, Initial residual = 0.00106516, Final residual = 2.2013e-06, No Iterations 1
DILUPBiCGStab:  Solving for Uz, Initial residual = 0.000192574, Final residual = 9.01042e-07, No Iterations 1
DILUPBiCGStab:  Solving for h, Initial residual = 7.0561e-05, Final residual = 2.06068e-07, No Iterations 1
Min/max T:391.19 400
GAMG:  Solving for p_rgh, Initial residual = 7.40711e-05, Final residual = 5.94968e-07, No Iterations 7
time step continuity errors : sum local = 1.87458e-06, global = -1.17324e-07, cumulative = -0.0659684
Min/max rho:1000 1000
ExecutionTime = 331.84 s  ClockTime = 3081 s

Time = 225


Solving for fluid region air
DILUPBiCGStab:  Solving for Ux, Initial residual = 0.00134475, Final residual = 4.49719e-06, No Iterations 1
DILUPBiCGStab:  Solving for Uy, Initial residual = 0.00127607, Final residual = 4.27576e-06, No Iterations 1
DILUPBiCGStab:  Solving for Uz, Initial residual = 0.00118211, Final residual = 3.94444e-06, No Iterations 1
DILUPBiCGStab:  Solving for h, Initial residual = 0.0021339, Final residual = 6.21069e-06, No Iterations 1
Min/max T:299.975 309.646
GAMG:  Solving for p_rgh, Initial residual = 0.00331629, Final residual = 1.58551e-05, No Iterations 3
time step continuity errors : sum local = 4.36102e-05, global = 1.65034e-05, cumulative = -0.0659519
Min/max rho:1.13213 1.17092
DILUPBiCGStab:  Solving for epsilon, Initial residual = 0.00138446, Final residual = 5.9835e-06, No Iterations 1
DILUPBiCGStab:  Solving for k, Initial residual = 0.00219798, Final residual = 7.00129e-06, No Iterations 1

Solving for fluid region porous
DILUPBiCGStab:  Solving for Ux, Initial residual = 6.67075e-05, Final residual = 2.07268e-07, No Iterations 1
DILUPBiCGStab:  Solving for Uy, Initial residual = 0.0010422, Final residual = 2.13927e-06, No Iterations 1
DILUPBiCGStab:  Solving for Uz, Initial residual = 0.000187917, Final residual = 8.81364e-07, No Iterations 1
DILUPBiCGStab:  Solving for h, Initial residual = 6.95397e-05, Final residual = 2.02185e-07, No Iterations 1
Min/max T:391.189 400
GAMG:  Solving for p_rgh, Initial residual = 7.37679e-05, Final residual = 6.01054e-07, No Iterations 7
time step continuity errors : sum local = 1.88302e-06, global = -1.16297e-07, cumulative = -0.0659521
Min/max rho:1000 1000
ExecutionTime = 332.89 s  ClockTime = 3082 s

Time = 226


Solving for fluid region air
DILUPBiCGStab:  Solving for Ux, Initial residual = 0.00134149, Final residual = 4.4856e-06, No Iterations 1
DILUPBiCGStab:  Solving for Uy, Initial residual = 0.00127267, Final residual = 4.26564e-06, No Iterations 1
DILUPBiCGStab:  Solving for Uz, Initial residual = 0.00117758, Final residual = 3.93095e-06, No Iterations 1
DILUPBiCGStab:  Solving for h, Initial residual = 0.00212667, Final residual = 6.18616e-06, No Iterations 1
Min/max T:299.975 309.658
