/*---------------------------------------------------------------------------*\
| =========                 |                                                 |
| \\      /  F ield         | OpenFOAM: The Open Source CFD Toolbox           |
|  \\    /   O peration     | Version:  v1912                                 |
|   \\  /    A nd           | Website:  www.openfoam.com                      |
|    \\/     M anipulation  |                                                 |
\*---------------------------------------------------------------------------*/
Build  : _f3950763fe-20191219 OPENFOAM=1912
Arch   : "LSB;label=32;scalar=64"
Exec   : topoSet -region air -dict system/topoSetDict.2
Date   : Nov 05 2020
Time   : 20:26:17
Host   : DESKTOP-7S8DQ3L
PID    : 9843
I/O    : uncollated
Case   : /home/logankp/OpenFOAM/logankp-v1912/run/CFD/Heat_Transfer/chtMultiRegionSimpleFoam/heatExchanger
nProcs : 1
trapFpe: Floating point exception trapping enabled (FOAM_SIGFPE).
fileModificationChecking : Monitoring run-time modified files using timeStampMaster (fileModificationSkew 10)
allowSystemOperations : Allowing user-supplied system call operations

// * * * * * * * * * * * * * * * * * * * * * * * * * * * * * * * * * * * * * //
Create time

Create polyMesh air for time = 0

Reading topoSetDict

Time = 0
    mesh not changed.
Created cellSet rotorCells
    Applying source zoneToCell
    Adding all cells of cell zones 2(cylinder innerCylinder) ...
    Found matching zone cylinder with 108000 cells.
    Found matching zone innerCylinder with 27000 cells.
    cellSet rotorCells now size 135000
Read set cellSet rotorCells with size 135000
    Applying source boxToCell
    Adding cells with centre within boxes 1((-100 -100 0.1) (100 100 0.15))
    cellSet rotorCells now size 13500
Created cellZoneSet rotor
    Applying source setToCellZone
    Adding all cells from cellSet rotorCells ...
    cellZoneSet rotor now size 13500

End

