/*---------------------------------------------------------------------------*\
| =========                 |                                                 |
| \\      /  F ield         | OpenFOAM: The Open Source CFD Toolbox           |
|  \\    /   O peration     | Version:  v1912                                 |
|   \\  /    A nd           | Website:  www.openfoam.com                      |
|    \\/     M anipulation  |                                                 |
\*---------------------------------------------------------------------------*/
Build  : _f3950763fe-20191219 OPENFOAM=1912
Arch   : "LSB;label=32;scalar=64"
Exec   : pimpleFoam
Date   : Jun 06 2020
Time   : 13:14:24
Host   : DESKTOP-7S8DQ3L
PID    : 6166
I/O    : uncollated
Case   : /home/logankp/OpenFOAM/logankp-v1912/run/CFD/Midterm_Case/Graded_Mesh/TimeAccurate/Laminar
nProcs : 1
trapFpe: Floating point exception trapping enabled (FOAM_SIGFPE).
fileModificationChecking : Monitoring run-time modified files using timeStampMaster (fileModificationSkew 10)
allowSystemOperations : Allowing user-supplied system call operations

// * * * * * * * * * * * * * * * * * * * * * * * * * * * * * * * * * * * * * //
Create time

Create mesh for time = 0


PIMPLE: Operating solver in PISO mode

Reading field p

Reading field U

Reading/calculating face flux field phi

Selecting incompressible transport model Newtonian
Selecting turbulence model type laminar
Selecting laminar stress model Stokes
No MRF models present

No finite volume options present
Courant Number mean: 0.00486529 max: 1.12027

Starting time loop

Courant Number mean: 0.00486529 max: 1.12027
Time = 0.25

PIMPLE: iteration 1
smoothSolver:  Solving for Ux, Initial residual = 1, Final residual = 4.15951e-06, No Iterations 7
smoothSolver:  Solving for Uy, Initial residual = 1, Final residual = 4.16074e-06, No Iterations 7
GAMG:  Solving for p, Initial residual = 1, Final residual = 0.00753399, No Iterations 6
time step continuity errors : sum local = 0.000102322, global = -3.64501e-05, cumulative = -3.64501e-05
GAMG:  Solving for p, Initial residual = 0.0266138, Final residual = 7.01731e-08, No Iterations 11
time step continuity errors : sum local = 7.85224e-08, global = 3.02279e-08, cumulative = -3.64199e-05
ExecutionTime = 0.18 s  ClockTime = 1 s

Courant Number mean: 0.797958 max: 4.65347
Time = 0.5

PIMPLE: iteration 1
smoothSolver:  Solving for Ux, Initial residual = 0.837811, Final residual = 6.52142e-06, No Iterations 5
smoothSolver:  Solving for Uy, Initial residual = 0.387993, Final residual = 2.75226e-06, No Iterations 6
GAMG:  Solving for p, Initial residual = 0.0721242, Final residual = 0.000303519, No Iterations 6
time step continuity errors : sum local = 0.000108664, global = 3.13328e-05, cumulative = -5.0871e-06
GAMG:  Solving for p, Initial residual = 0.11219, Final residual = 9.2584e-08, No Iterations 14
time step continuity errors : sum local = 3.39275e-08, global = -1.6758e-08, cumulative = -5.10386e-06
ExecutionTime = 0.19 s  ClockTime = 1 s

Courant Number mean: 0.794242 max: 4.2425
Time = 0.75

PIMPLE: iteration 1
smoothSolver:  Solving for Ux, Initial residual = 0.0783678, Final residual = 3.79883e-06, No Iterations 5
smoothSolver:  Solving for Uy, Initial residual = 0.842082, Final residual = 8.9808e-06, No Iterations 6
GAMG:  Solving for p, Initial residual = 0.85524, Final residual = 0.00240324, No Iterations 4
time step continuity errors : sum local = 0.000190453, global = 3.04555e-05, cumulative = 2.53516e-05
GAMG:  Solving for p, Initial residual = 0.741732, Final residual = 5.11882e-08, No Iterations 15
time step continuity errors : sum local = 2.69422e-09, global = -2.3671e-10, cumulative = 2.53514e-05
ExecutionTime = 0.23 s  ClockTime = 1 s

Courant Number mean: 0.799541 max: 4.05971
Time = 1

PIMPLE: iteration 1
smoothSolver:  Solving for Ux, Initial residual = 0.0631952, Final residual = 4.93386e-06, No Iterations 4
smoothSolver:  Solving for Uy, Initial residual = 0.177311, Final residual = 5.72749e-06, No Iterations 5
GAMG:  Solving for p, Initial residual = 0.346401, Final residual = 0.00163293, No Iterations 4
time step continuity errors : sum local = 6.18652e-05, global = 7.71115e-06, cumulative = 3.30625e-05
GAMG:  Solving for p, Initial residual = 0.263752, Final residual = 6.6016e-08, No Iterations 14
time step continuity errors : sum local = 1.65401e-09, global = -1.63978e-10, cumulative = 3.30624e-05
ExecutionTime = 0.24 s  ClockTime = 1 s

Courant Number mean: 0.798668 max: 4.00823
Time = 1.25

PIMPLE: iteration 1
smoothSolver:  Solving for Ux, Initial residual = 0.0295569, Final residual = 3.16235e-06, No Iterations 4
smoothSolver:  Solving for Uy, Initial residual = 0.0713026, Final residual = 2.38045e-06, No Iterations 5
GAMG:  Solving for p, Initial residual = 0.382963, Final residual = 0.00367381, No Iterations 3
time step continuity errors : sum local = 4.68869e-05, global = -1.49584e-05, cumulative = 1.8104e-05
GAMG:  Solving for p, Initial residual = 0.134974, Final residual = 9.43066e-08, No Iterations 12
time step continuity errors : sum local = 1.70222e-09, global = 5.76841e-10, cumulative = 1.81045e-05
ExecutionTime = 0.26 s  ClockTime = 1 s

Courant Number mean: 0.800287 max: 4.00331
Time = 1.5

PIMPLE: iteration 1
smoothSolver:  Solving for Ux, Initial residual = 0.0184584, Final residual = 1.77371e-06, No Iterations 4
smoothSolver:  Solving for Uy, Initial residual = 0.0449461, Final residual = 2.3473e-06, No Iterations 4
GAMG:  Solving for p, Initial residual = 0.135667, Final residual = 0.000982959, No Iterations 3
time step continuity errors : sum local = 1.51351e-05, global = 4.13328e-06, cumulative = 2.22378e-05
GAMG:  Solving for p, Initial residual = 0.0740604, Final residual = 3.35451e-08, No Iterations 12
time step continuity errors : sum local = 4.35438e-10, global = 5.90423e-11, cumulative = 2.22379e-05
ExecutionTime = 0.29 s  ClockTime = 1 s

Courant Number mean: 0.801119 max: 3.99475
Time = 1.75

PIMPLE: iteration 1
smoothSolver:  Solving for Ux, Initial residual = 0.0156805, Final residual = 8.0911e-06, No Iterations 3
smoothSolver:  Solving for Uy, Initial residual = 0.0316652, Final residual = 7.46627e-06, No Iterations 3
GAMG:  Solving for p, Initial residual = 0.067496, Final residual = 0.000284323, No Iterations 4
time step continuity errors : sum local = 3.72611e-06, global = -7.10606e-07, cumulative = 2.15273e-05
GAMG:  Solving for p, Initial residual = 0.0282194, Final residual = 4.19791e-08, No Iterations 12
time step continuity errors : sum local = 6.13337e-10, global = 2.29448e-10, cumulative = 2.15275e-05
ExecutionTime = 0.32 s  ClockTime = 1 s

Courant Number mean: 0.802369 max: 3.99093
Time = 2

PIMPLE: iteration 1
smoothSolver:  Solving for Ux, Initial residual = 0.0142498, Final residual = 5.84843e-06, No Iterations 3
smoothSolver:  Solving for Uy, Initial residual = 0.0263513, Final residual = 4.09555e-06, No Iterations 3
GAMG:  Solving for p, Initial residual = 0.0461052, Final residual = 0.000333949, No Iterations 3
time step continuity errors : sum local = 4.61664e-06, global = -6.56111e-07, cumulative = 2.08714e-05
GAMG:  Solving for p, Initial residual = 0.020909, Final residual = 4.65988e-08, No Iterations 11
time step continuity errors : sum local = 6.43317e-10, global = 2.9032e-10, cumulative = 2.08717e-05
ExecutionTime = 0.35 s  ClockTime = 1 s

Courant Number mean: 0.803552 max: 3.98881
Time = 2.25

PIMPLE: iteration 1
smoothSolver:  Solving for Ux, Initial residual = 0.0135861, Final residual = 4.44135e-06, No Iterations 3
smoothSolver:  Solving for Uy, Initial residual = 0.0233218, Final residual = 3.5959e-06, No Iterations 3
GAMG:  Solving for p, Initial residual = 0.0351348, Final residual = 0.000291268, No Iterations 3
time step continuity errors : sum local = 4.01915e-06, global = -5.88081e-07, cumulative = 2.02836e-05
GAMG:  Solving for p, Initial residual = 0.0152741, Final residual = 5.23319e-08, No Iterations 10
time step continuity errors : sum local = 7.23796e-10, global = -1.72462e-10, cumulative = 2.02834e-05
ExecutionTime = 0.39 s  ClockTime = 1 s

Courant Number mean: 0.804697 max: 3.98724
Time = 2.5

PIMPLE: iteration 1
smoothSolver:  Solving for Ux, Initial residual = 0.0132466, Final residual = 3.56288e-06, No Iterations 3
smoothSolver:  Solving for Uy, Initial residual = 0.0212999, Final residual = 3.02009e-06, No Iterations 3
GAMG:  Solving for p, Initial residual = 0.0291076, Final residual = 0.000217227, No Iterations 3
time step continuity errors : sum local = 3.02155e-06, global = 4.61642e-07, cumulative = 2.07451e-05
GAMG:  Solving for p, Initial residual = 0.0127415, Final residual = 7.24759e-08, No Iterations 10
time step continuity errors : sum local = 1.00689e-09, global = 3.23048e-10, cumulative = 2.07454e-05
ExecutionTime = 0.42 s  ClockTime = 1 s

Courant Number mean: 0.80587 max: 3.98616
Time = 2.75

PIMPLE: iteration 1
smoothSolver:  Solving for Ux, Initial residual = 0.012957, Final residual = 2.97573e-06, No Iterations 3
smoothSolver:  Solving for Uy, Initial residual = 0.0199739, Final residual = 2.44529e-06, No Iterations 3
GAMG:  Solving for p, Initial residual = 0.0285986, Final residual = 0.000245689, No Iterations 3
time step continuity errors : sum local = 3.4232e-06, global = -7.23836e-08, cumulative = 2.0673e-05
GAMG:  Solving for p, Initial residual = 0.0127563, Final residual = 6.03862e-08, No Iterations 10
time step continuity errors : sum local = 8.42533e-10, global = 2.16815e-10, cumulative = 2.06732e-05
ExecutionTime = 0.43 s  ClockTime = 1 s

Courant Number mean: 0.807308 max: 3.98517
Time = 3

PIMPLE: iteration 1
smoothSolver:  Solving for Ux, Initial residual = 0.0127916, Final residual = 2.52159e-06, No Iterations 3
smoothSolver:  Solving for Uy, Initial residual = 0.0191285, Final residual = 2.11593e-06, No Iterations 3
GAMG:  Solving for p, Initial residual = 0.0272713, Final residual = 0.000272161, No Iterations 3
time step continuity errors : sum local = 3.80647e-06, global = 2.38124e-07, cumulative = 2.09113e-05
GAMG:  Solving for p, Initial residual = 0.0123085, Final residual = 7.60934e-08, No Iterations 10
time step continuity errors : sum local = 1.06489e-09, global = 3.48701e-10, cumulative = 2.09117e-05
ExecutionTime = 0.45 s  ClockTime = 1 s

Courant Number mean: 0.808825 max: 3.98417
Time = 3.25

PIMPLE: iteration 1
smoothSolver:  Solving for Ux, Initial residual = 0.0126411, Final residual = 2.22462e-06, No Iterations 3
smoothSolver:  Solving for Uy, Initial residual = 0.0186245, Final residual = 1.91717e-06, No Iterations 3
GAMG:  Solving for p, Initial residual = 0.0268591, Final residual = 8.60848e-05, No Iterations 4
time step continuity errors : sum local = 1.20567e-06, global = 5.61616e-08, cumulative = 2.09679e-05
GAMG:  Solving for p, Initial residual = 0.0123109, Final residual = 5.60347e-08, No Iterations 10
time step continuity errors : sum local = 7.86117e-10, global = 2.18786e-10, cumulative = 2.09681e-05
ExecutionTime = 0.46 s  ClockTime = 1 s

Courant Number mean: 0.810461 max: 3.98317
Time = 3.5

PIMPLE: iteration 1
smoothSolver:  Solving for Ux, Initial residual = 0.0125484, Final residual = 2.00326e-06, No Iterations 3
smoothSolver:  Solving for Uy, Initial residual = 0.0183047, Final residual = 1.74919e-06, No Iterations 3
GAMG:  Solving for p, Initial residual = 0.0269068, Final residual = 9.235e-05, No Iterations 4
time step continuity errors : sum local = 1.29952e-06, global = 1.11596e-07, cumulative = 2.10797e-05
GAMG:  Solving for p, Initial residual = 0.0125389, Final residual = 6.33905e-08, No Iterations 10
time step continuity errors : sum local = 8.93751e-10, global = 2.29936e-10, cumulative = 2.10799e-05
ExecutionTime = 0.48 s  ClockTime = 1 s

Courant Number mean: 0.812145 max: 3.98213
Time = 3.75

PIMPLE: iteration 1
smoothSolver:  Solving for Ux, Initial residual = 0.0124616, Final residual = 1.85077e-06, No Iterations 3
smoothSolver:  Solving for Uy, Initial residual = 0.0182219, Final residual = 1.67964e-06, No Iterations 3
GAMG:  Solving for p, Initial residual = 0.0254394, Final residual = 9.48522e-05, No Iterations 4
time step continuity errors : sum local = 1.33904e-06, global = 8.87722e-08, cumulative = 2.11687e-05
GAMG:  Solving for p, Initial residual = 0.0122579, Final residual = 7.08797e-08, No Iterations 10
time step continuity errors : sum local = 1.0037e-09, global = 2.13534e-10, cumulative = 2.11689e-05
ExecutionTime = 0.5 s  ClockTime = 1 s

Courant Number mean: 0.813878 max: 3.98107
Time = 4

PIMPLE: iteration 1
smoothSolver:  Solving for Ux, Initial residual = 0.0123806, Final residual = 1.74601e-06, No Iterations 3
smoothSolver:  Solving for Uy, Initial residual = 0.0181936, Final residual = 1.62289e-06, No Iterations 3
GAMG:  Solving for p, Initial residual = 0.026588, Final residual = 0.000100607, No Iterations 4
time step continuity errors : sum local = 1.42826e-06, global = 9.30957e-08, cumulative = 2.1262e-05
GAMG:  Solving for p, Initial residual = 0.0126164, Final residual = 7.68774e-08, No Iterations 10
time step continuity errors : sum local = 1.09578e-09, global = 2.24629e-10, cumulative = 2.12622e-05
ExecutionTime = 0.51 s  ClockTime = 1 s

Courant Number mean: 0.815794 max: 3.98
Time = 4.25

PIMPLE: iteration 1
smoothSolver:  Solving for Ux, Initial residual = 0.0123147, Final residual = 1.67398e-06, No Iterations 3
smoothSolver:  Solving for Uy, Initial residual = 0.0182139, Final residual = 1.59896e-06, No Iterations 3
GAMG:  Solving for p, Initial residual = 0.0267872, Final residual = 0.000105422, No Iterations 4
time step continuity errors : sum local = 1.50664e-06, global = 8.19358e-08, cumulative = 2.13441e-05
GAMG:  Solving for p, Initial residual = 0.0124934, Final residual = 7.81487e-08, No Iterations 10
time step continuity errors : sum local = 1.12165e-09, global = 2.4486e-10, cumulative = 2.13444e-05
ExecutionTime = 0.53 s  ClockTime = 1 s

Courant Number mean: 0.817745 max: 3.97893
Time = 4.5

PIMPLE: iteration 1
smoothSolver:  Solving for Ux, Initial residual = 0.0122575, Final residual = 1.63078e-06, No Iterations 3
smoothSolver:  Solving for Uy, Initial residual = 0.018287, Final residual = 1.59308e-06, No Iterations 3
GAMG:  Solving for p, Initial residual = 0.0267239, Final residual = 0.000111408, No Iterations 4
time step continuity errors : sum local = 1.60158e-06, global = 7.68708e-08, cumulative = 2.14213e-05
GAMG:  Solving for p, Initial residual = 0.0124825, Final residual = 7.97381e-08, No Iterations 10
time step continuity errors : sum local = 1.14972e-09, global = 2.6639e-10, cumulative = 2.14215e-05
ExecutionTime = 0.54 s  ClockTime = 1 s

Courant Number mean: 0.819816 max: 3.97785
Time = 4.75

PIMPLE: iteration 1
smoothSolver:  Solving for Ux, Initial residual = 0.0122088, Final residual = 1.6161e-06, No Iterations 3
smoothSolver:  Solving for Uy, Initial residual = 0.018387, Final residual = 1.60577e-06, No Iterations 3
GAMG:  Solving for p, Initial residual = 0.0287556, Final residual = 0.000117838, No Iterations 4
time step continuity errors : sum local = 1.70416e-06, global = 7.64451e-08, cumulative = 2.1498e-05
GAMG:  Solving for p, Initial residual = 0.0128675, Final residual = 8.39735e-08, No Iterations 10
time step continuity errors : sum local = 1.22048e-09, global = 2.97501e-10, cumulative = 2.14983e-05
ExecutionTime = 0.56 s  ClockTime = 1 s

Courant Number mean: 0.82188 max: 3.97679
Time = 5

PIMPLE: iteration 1
smoothSolver:  Solving for Ux, Initial residual = 0.0121736, Final residual = 1.61511e-06, No Iterations 3
smoothSolver:  Solving for Uy, Initial residual = 0.0186099, Final residual = 1.61797e-06, No Iterations 3
GAMG:  Solving for p, Initial residual = 0.0275567, Final residual = 0.000122036, No Iterations 4
time step continuity errors : sum local = 1.77838e-06, global = 6.14908e-08, cumulative = 2.15598e-05
GAMG:  Solving for p, Initial residual = 0.0123228, Final residual = 8.34392e-08, No Iterations 10
time step continuity errors : sum local = 1.22201e-09, global = 2.96122e-10, cumulative = 2.15601e-05
ExecutionTime = 0.58 s  ClockTime = 1 s

Courant Number mean: 0.824004 max: 3.97574
Time = 5.25

PIMPLE: iteration 1
smoothSolver:  Solving for Ux, Initial residual = 0.0121706, Final residual = 1.63331e-06, No Iterations 3
smoothSolver:  Solving for Uy, Initial residual = 0.0187345, Final residual = 1.63357e-06, No Iterations 3
GAMG:  Solving for p, Initial residual = 0.029242, Final residual = 0.000124212, No Iterations 4
time step continuity errors : sum local = 1.82535e-06, global = 6.79215e-08, cumulative = 2.1628e-05
GAMG:  Solving for p, Initial residual = 0.0123641, Final residual = 8.25622e-08, No Iterations 10
time step continuity errors : sum local = 1.22012e-09, global = 2.98575e-10, cumulative = 2.16283e-05
ExecutionTime = 0.59 s  ClockTime = 1 s

Courant Number mean: 0.826284 max: 3.97473
Time = 5.5

PIMPLE: iteration 1
smoothSolver:  Solving for Ux, Initial residual = 0.0122183, Final residual = 1.66872e-06, No Iterations 3
smoothSolver:  Solving for Uy, Initial residual = 0.0188777, Final residual = 1.66515e-06, No Iterations 3
GAMG:  Solving for p, Initial residual = 0.0317318, Final residual = 0.000129628, No Iterations 4
time step continuity errors : sum local = 1.92866e-06, global = 6.35775e-08, cumulative = 2.16919e-05
GAMG:  Solving for p, Initial residual = 0.0129705, Final residual = 8.48043e-08, No Iterations 10
time step continuity errors : sum local = 1.27258e-09, global = 3.11016e-10, cumulative = 2.16922e-05
ExecutionTime = 0.61 s  ClockTime = 1 s

Courant Number mean: 0.828578 max: 3.97374
Time = 5.75

PIMPLE: iteration 1
smoothSolver:  Solving for Ux, Initial residual = 0.0122175, Final residual = 1.7152e-06, No Iterations 3
smoothSolver:  Solving for Uy, Initial residual = 0.0192393, Final residual = 1.7125e-06, No Iterations 3
GAMG:  Solving for p, Initial residual = 0.0304861, Final residual = 0.000129417, No Iterations 4
time step continuity errors : sum local = 1.95022e-06, global = 1.07017e-07, cumulative = 2.17992e-05
GAMG:  Solving for p, Initial residual = 0.0123709, Final residual = 8.22134e-08, No Iterations 10
time step continuity errors : sum local = 1.24633e-09, global = 3.42034e-10, cumulative = 2.17995e-05
ExecutionTime = 0.64 s  ClockTime = 1 s

Courant Number mean: 0.830796 max: 3.9728
Time = 6

PIMPLE: iteration 1
smoothSolver:  Solving for Ux, Initial residual = 0.0122724, Final residual = 1.77455e-06, No Iterations 3
smoothSolver:  Solving for Uy, Initial residual = 0.0194082, Final residual = 1.71845e-06, No Iterations 3
GAMG:  Solving for p, Initial residual = 0.0324855, Final residual = 0.000131682, No Iterations 4
time step continuity errors : sum local = 2.01006e-06, global = 9.00172e-08, cumulative = 2.18895e-05
GAMG:  Solving for p, Initial residual = 0.0124258, Final residual = 7.9022e-08, No Iterations 10
time step continuity errors : sum local = 1.21623e-09, global = 3.40369e-10, cumulative = 2.18899e-05
ExecutionTime = 0.65 s  ClockTime = 1 s

Courant Number mean: 0.833252 max: 3.97193
Time = 6.25

PIMPLE: iteration 1
smoothSolver:  Solving for Ux, Initial residual = 0.012336, Final residual = 1.84552e-06, No Iterations 3
smoothSolver:  Solving for Uy, Initial residual = 0.0196491, Final residual = 1.75908e-06, No Iterations 3
GAMG:  Solving for p, Initial residual = 0.0352386, Final residual = 0.00013196, No Iterations 4
time step continuity errors : sum local = 2.04773e-06, global = 1.09933e-07, cumulative = 2.19998e-05
GAMG:  Solving for p, Initial residual = 0.0130031, Final residual = 7.91666e-08, No Iterations 10
time step continuity errors : sum local = 1.24091e-09, global = 3.64263e-10, cumulative = 2.20002e-05
ExecutionTime = 0.67 s  ClockTime = 1 s

Courant Number mean: 0.83574 max: 3.97111
Time = 6.5

PIMPLE: iteration 1
smoothSolver:  Solving for Ux, Initial residual = 0.0123157, Final residual = 1.91715e-06, No Iterations 3
smoothSolver:  Solving for Uy, Initial residual = 0.0200022, Final residual = 1.81263e-06, No Iterations 3
GAMG:  Solving for p, Initial residual = 0.0332685, Final residual = 0.000133744, No Iterations 4
time step continuity errors : sum local = 2.10641e-06, global = 8.84087e-08, cumulative = 2.20886e-05
GAMG:  Solving for p, Initial residual = 0.0129358, Final residual = 7.23428e-08, No Iterations 10
time step continuity errors : sum local = 1.14663e-09, global = 3.35992e-10, cumulative = 2.20889e-05
ExecutionTime = 0.69 s  ClockTime = 1 s

Courant Number mean: 0.838318 max: 3.97036
Time = 6.75

PIMPLE: iteration 1
smoothSolver:  Solving for Ux, Initial residual = 0.0123801, Final residual = 2.0112e-06, No Iterations 3
smoothSolver:  Solving for Uy, Initial residual = 0.0202576, Final residual = 1.87253e-06, No Iterations 3
GAMG:  Solving for p, Initial residual = 0.0368617, Final residual = 0.000142092, No Iterations 4
time step continuity errors : sum local = 2.27384e-06, global = 1.8353e-08, cumulative = 2.21073e-05
GAMG:  Solving for p, Initial residual = 0.0133378, Final residual = 6.76199e-08, No Iterations 10
time step continuity errors : sum local = 1.09294e-09, global = 2.46611e-10, cumulative = 2.21075e-05
ExecutionTime = 0.7 s  ClockTime = 1 s

Courant Number mean: 0.841102 max: 3.96966
Time = 7

PIMPLE: iteration 1
smoothSolver:  Solving for Ux, Initial residual = 0.0124366, Final residual = 2.13254e-06, No Iterations 3
smoothSolver:  Solving for Uy, Initial residual = 0.0206768, Final residual = 1.9678e-06, No Iterations 3
GAMG:  Solving for p, Initial residual = 0.037315, Final residual = 0.000126973, No Iterations 4
time step continuity errors : sum local = 2.07178e-06, global = 9.75331e-08, cumulative = 2.22051e-05
GAMG:  Solving for p, Initial residual = 0.0137947, Final residual = 6.70443e-08, No Iterations 10
time step continuity errors : sum local = 1.10634e-09, global = 2.79732e-10, cumulative = 2.22053e-05
ExecutionTime = 0.72 s  ClockTime = 1 s

Courant Number mean: 0.843946 max: 3.96905
Time = 7.25

PIMPLE: iteration 1
smoothSolver:  Solving for Ux, Initial residual = 0.0125126, Final residual = 2.22474e-06, No Iterations 3
smoothSolver:  Solving for Uy, Initial residual = 0.0209655, Final residual = 2.00683e-06, No Iterations 3
GAMG:  Solving for p, Initial residual = 0.0407138, Final residual = 0.000361225, No Iterations 3
time step continuity errors : sum local = 6.005e-06, global = -4.23434e-09, cumulative = 2.22011e-05
GAMG:  Solving for p, Initial residual = 0.0148764, Final residual = 6.60744e-08, No Iterations 10
time step continuity errors : sum local = 1.11149e-09, global = 2.63272e-10, cumulative = 2.22014e-05
ExecutionTime = 0.73 s  ClockTime = 1 s

Courant Number mean: 0.846938 max: 3.96853
Time = 7.5

PIMPLE: iteration 1
smoothSolver:  Solving for Ux, Initial residual = 0.0125847, Final residual = 2.36422e-06, No Iterations 3
smoothSolver:  Solving for Uy, Initial residual = 0.0215504, Final residual = 2.114e-06, No Iterations 3
GAMG:  Solving for p, Initial residual = 0.0395428, Final residual = 0.000380008, No Iterations 3
time step continuity errors : sum local = 6.42218e-06, global = 1.08532e-07, cumulative = 2.23099e-05
GAMG:  Solving for p, Initial residual = 0.0151944, Final residual = 7.15706e-08, No Iterations 10
time step continuity errors : sum local = 1.21869e-09, global = 3.54363e-10, cumulative = 2.23103e-05
ExecutionTime = 0.75 s  ClockTime = 1 s

Courant Number mean: 0.849972 max: 3.96808
Time = 7.75

PIMPLE: iteration 1
smoothSolver:  Solving for Ux, Initial residual = 0.0126458, Final residual = 2.49886e-06, No Iterations 3
smoothSolver:  Solving for Uy, Initial residual = 0.0218942, Final residual = 2.20629e-06, No Iterations 3
GAMG:  Solving for p, Initial residual = 0.0411544, Final residual = 0.000336134, No Iterations 3
time step continuity errors : sum local = 5.77265e-06, global = -2.1209e-08, cumulative = 2.2289e-05
GAMG:  Solving for p, Initial residual = 0.0156245, Final residual = 5.80832e-08, No Iterations 10
time step continuity errors : sum local = 1.00957e-09, global = 2.23217e-10, cumulative = 2.22893e-05
ExecutionTime = 0.76 s  ClockTime = 1 s

Courant Number mean: 0.852974 max: 3.96769
Time = 8

PIMPLE: iteration 1
smoothSolver:  Solving for Ux, Initial residual = 0.012775, Final residual = 2.64978e-06, No Iterations 3
smoothSolver:  Solving for Uy, Initial residual = 0.0223983, Final residual = 2.3538e-06, No Iterations 3
GAMG:  Solving for p, Initial residual = 0.0437289, Final residual = 0.000339125, No Iterations 3
time step continuity errors : sum local = 5.95166e-06, global = 1.31097e-07, cumulative = 2.24204e-05
GAMG:  Solving for p, Initial residual = 0.0160351, Final residual = 6.39148e-08, No Iterations 10
time step continuity errors : sum local = 1.13541e-09, global = 3.35707e-10, cumulative = 2.24207e-05
ExecutionTime = 0.78 s  ClockTime = 1 s

Courant Number mean: 0.856098 max: 3.96739
Time = 8.25

PIMPLE: iteration 1
smoothSolver:  Solving for Ux, Initial residual = 0.0128616, Final residual = 2.79505e-06, No Iterations 3
smoothSolver:  Solving for Uy, Initial residual = 0.022907, Final residual = 2.4863e-06, No Iterations 3
GAMG:  Solving for p, Initial residual = 0.0455341, Final residual = 0.000319707, No Iterations 3
time step continuity errors : sum local = 5.70294e-06, global = -7.13501e-09, cumulative = 2.24136e-05
GAMG:  Solving for p, Initial residual = 0.0168726, Final residual = 5.78272e-08, No Iterations 10
time step continuity errors : sum local = 1.04093e-09, global = 2.44424e-10, cumulative = 2.24138e-05
ExecutionTime = 0.79 s  ClockTime = 1 s

Courant Number mean: 0.859162 max: 3.96716
Time = 8.5

PIMPLE: iteration 1
smoothSolver:  Solving for Ux, Initial residual = 0.0129527, Final residual = 2.95202e-06, No Iterations 3
smoothSolver:  Solving for Uy, Initial residual = 0.0234096, Final residual = 2.65049e-06, No Iterations 3
GAMG:  Solving for p, Initial residual = 0.0461805, Final residual = 0.000326293, No Iterations 3
time step continuity errors : sum local = 5.91149e-06, global = 7.83372e-08, cumulative = 2.24921e-05
GAMG:  Solving for p, Initial residual = 0.0173499, Final residual = 5.97293e-08, No Iterations 10
time step continuity errors : sum local = 1.09182e-09, global = 2.94937e-10, cumulative = 2.24924e-05
ExecutionTime = 0.81 s  ClockTime = 1 s

Courant Number mean: 0.862215 max: 3.96699
Time = 8.75

PIMPLE: iteration 1
smoothSolver:  Solving for Ux, Initial residual = 0.0130895, Final residual = 3.11762e-06, No Iterations 3
smoothSolver:  Solving for Uy, Initial residual = 0.0238359, Final residual = 2.86407e-06, No Iterations 3
GAMG:  Solving for p, Initial residual = 0.0480859, Final residual = 0.000314992, No Iterations 3
time step continuity errors : sum local = 5.80131e-06, global = -4.19976e-08, cumulative = 2.24504e-05
GAMG:  Solving for p, Initial residual = 0.017974, Final residual = 5.48654e-08, No Iterations 10
time step continuity errors : sum local = 1.02192e-09, global = 2.32545e-10, cumulative = 2.24507e-05
ExecutionTime = 0.83 s  ClockTime = 1 s

Courant Number mean: 0.865437 max: 3.96688
Time = 9

PIMPLE: iteration 1
smoothSolver:  Solving for Ux, Initial residual = 0.0131851, Final residual = 3.29605e-06, No Iterations 3
smoothSolver:  Solving for Uy, Initial residual = 0.0243314, Final residual = 3.08986e-06, No Iterations 3
GAMG:  Solving for p, Initial residual = 0.0498347, Final residual = 0.000337235, No Iterations 3
time step continuity errors : sum local = 6.31838e-06, global = 4.59074e-08, cumulative = 2.24966e-05
GAMG:  Solving for p, Initial residual = 0.0186578, Final residual = 6.12095e-08, No Iterations 10
time step continuity errors : sum local = 1.1579e-09, global = 3.25602e-10, cumulative = 2.24969e-05
ExecutionTime = 0.84 s  ClockTime = 1 s

Courant Number mean: 0.868579 max: 3.96683
Time = 9.25

PIMPLE: iteration 1
smoothSolver:  Solving for Ux, Initial residual = 0.0132915, Final residual = 3.47657e-06, No Iterations 3
smoothSolver:  Solving for Uy, Initial residual = 0.0247867, Final residual = 3.30997e-06, No Iterations 3
GAMG:  Solving for p, Initial residual = 0.0508318, Final residual = 0.000329655, No Iterations 3
time step continuity errors : sum local = 6.26875e-06, global = -7.44076e-08, cumulative = 2.24225e-05
GAMG:  Solving for p, Initial residual = 0.0194476, Final residual = 5.86919e-08, No Iterations 10
time step continuity errors : sum local = 1.12689e-09, global = 2.75721e-10, cumulative = 2.24228e-05
ExecutionTime = 0.84 s  ClockTime = 1 s

Courant Number mean: 0.87169 max: 3.96682
Time = 9.5

PIMPLE: iteration 1
smoothSolver:  Solving for Ux, Initial residual = 0.0134533, Final residual = 3.65605e-06, No Iterations 3
smoothSolver:  Solving for Uy, Initial residual = 0.0253149, Final residual = 3.57026e-06, No Iterations 3
GAMG:  Solving for p, Initial residual = 0.0530634, Final residual = 0.000328665, No Iterations 3
time step continuity errors : sum local = 6.35667e-06, global = 5.52407e-09, cumulative = 2.24283e-05
GAMG:  Solving for p, Initial residual = 0.020055, Final residual = 6.21294e-08, No Iterations 10
time step continuity errors : sum local = 1.21416e-09, global = 3.10176e-10, cumulative = 2.24286e-05
ExecutionTime = 0.87 s  ClockTime = 1 s

Courant Number mean: 0.874848 max: 3.96684
Time = 9.75

PIMPLE: iteration 1
smoothSolver:  Solving for Ux, Initial residual = 0.0135862, Final residual = 3.84918e-06, No Iterations 3
smoothSolver:  Solving for Uy, Initial residual = 0.0257729, Final residual = 3.90584e-06, No Iterations 3
GAMG:  Solving for p, Initial residual = 0.0546791, Final residual = 0.00036032, No Iterations 3
time step continuity errors : sum local = 7.08918e-06, global = -5.31879e-08, cumulative = 2.23754e-05
GAMG:  Solving for p, Initial residual = 0.0208293, Final residual = 7.07468e-08, No Iterations 10
time step continuity errors : sum local = 1.40655e-09, global = 3.73318e-10, cumulative = 2.23758e-05
ExecutionTime = 0.88 s  ClockTime = 1 s

Courant Number mean: 0.877997 max: 3.96688
Time = 10

PIMPLE: iteration 1
smoothSolver:  Solving for Ux, Initial residual = 0.0136784, Final residual = 4.04845e-06, No Iterations 3
smoothSolver:  Solving for Uy, Initial residual = 0.0261707, Final residual = 4.24622e-06, No Iterations 3
GAMG:  Solving for p, Initial residual = 0.0565657, Final residual = 0.00034663, No Iterations 3
time step continuity errors : sum local = 6.92263e-06, global = -6.01748e-08, cumulative = 2.23156e-05
GAMG:  Solving for p, Initial residual = 0.0213631, Final residual = 7.03978e-08, No Iterations 10
time step continuity errors : sum local = 1.41975e-09, global = 3.5984e-10, cumulative = 2.2316e-05
ExecutionTime = 0.92 s  ClockTime = 1 s

Courant Number mean: 0.881228 max: 3.96695
Time = 10.25

PIMPLE: iteration 1
smoothSolver:  Solving for Ux, Initial residual = 0.0138542, Final residual = 4.25857e-06, No Iterations 3
smoothSolver:  Solving for Uy, Initial residual = 0.0266881, Final residual = 4.61474e-06, No Iterations 3
GAMG:  Solving for p, Initial residual = 0.0577863, Final residual = 0.000351305, No Iterations 3
time step continuity errors : sum local = 7.12205e-06, global = -3.98333e-08, cumulative = 2.22761e-05
GAMG:  Solving for p, Initial residual = 0.0222132, Final residual = 7.17099e-08, No Iterations 10
time step continuity errors : sum local = 1.46657e-09, global = 3.66157e-10, cumulative = 2.22765e-05
ExecutionTime = 0.93 s  ClockTime = 1 s

Courant Number mean: 0.884409 max: 3.96702
Time = 10.5

PIMPLE: iteration 1
smoothSolver:  Solving for Ux, Initial residual = 0.0140137, Final residual = 4.4792e-06, No Iterations 3
smoothSolver:  Solving for Uy, Initial residual = 0.0272307, Final residual = 5.04746e-06, No Iterations 3
GAMG:  Solving for p, Initial residual = 0.0593753, Final residual = 0.000389073, No Iterations 3
time step continuity errors : sum local = 8.02493e-06, global = -1.28103e-08, cumulative = 2.22637e-05
GAMG:  Solving for p, Initial residual = 0.0230713, Final residual = 7.75926e-08, No Iterations 10
time step continuity errors : sum local = 1.61808e-09, global = 4.17962e-10, cumulative = 2.22641e-05
ExecutionTime = 0.96 s  ClockTime = 1 s

Courant Number mean: 0.887562 max: 3.9671
Time = 10.75

PIMPLE: iteration 1
smoothSolver:  Solving for Ux, Initial residual = 0.014148, Final residual = 4.71837e-06, No Iterations 3
smoothSolver:  Solving for Uy, Initial residual = 0.0275353, Final residual = 5.53121e-06, No Iterations 3
GAMG:  Solving for p, Initial residual = 0.061237, Final residual = 0.000381556, No Iterations 3
time step continuity errors : sum local = 8.01153e-06, global = -3.52855e-08, cumulative = 2.22288e-05
GAMG:  Solving for p, Initial residual = 0.0237248, Final residual = 7.4326e-08, No Iterations 10
time step continuity errors : sum local = 1.58114e-09, global = 3.87946e-10, cumulative = 2.22292e-05
ExecutionTime = 0.98 s  ClockTime = 1 s

Courant Number mean: 0.890743 max: 3.96717
Time = 11

PIMPLE: iteration 1
smoothSolver:  Solving for Ux, Initial residual = 0.0143241, Final residual = 4.97388e-06, No Iterations 3
smoothSolver:  Solving for Uy, Initial residual = 0.0281143, Final residual = 6.03986e-06, No Iterations 3
GAMG:  Solving for p, Initial residual = 0.0647616, Final residual = 0.000390834, No Iterations 3
time step continuity errors : sum local = 8.3529e-06, global = 2.64601e-08, cumulative = 2.22557e-05
GAMG:  Solving for p, Initial residual = 0.0245105, Final residual = 6.87741e-08, No Iterations 10
time step continuity errors : sum local = 1.48396e-09, global = 3.48571e-10, cumulative = 2.2256e-05
ExecutionTime = 0.99 s  ClockTime = 1 s

Courant Number mean: 0.894074 max: 3.96723
Time = 11.25

PIMPLE: iteration 1
smoothSolver:  Solving for Ux, Initial residual = 0.0144912, Final residual = 5.27247e-06, No Iterations 3
smoothSolver:  Solving for Uy, Initial residual = 0.0286325, Final residual = 6.69421e-06, No Iterations 3
GAMG:  Solving for p, Initial residual = 0.0650231, Final residual = 0.000424232, No Iterations 3
time step continuity errors : sum local = 9.20578e-06, global = 1.3069e-08, cumulative = 2.22691e-05
GAMG:  Solving for p, Initial residual = 0.0255736, Final residual = 7.87693e-08, No Iterations 10
time step continuity errors : sum local = 1.7226e-09, global = 4.26662e-10, cumulative = 2.22695e-05
ExecutionTime = 1.01 s  ClockTime = 1 s

Courant Number mean: 0.897376 max: 3.96727
Time = 11.5

PIMPLE: iteration 1
smoothSolver:  Solving for Ux, Initial residual = 0.0146771, Final residual = 5.61566e-06, No Iterations 3
smoothSolver:  Solving for Uy, Initial residual = 0.0290394, Final residual = 7.42061e-06, No Iterations 3
GAMG:  Solving for p, Initial residual = 0.0661654, Final residual = 0.000434166, No Iterations 3
time step continuity errors : sum local = 9.54725e-06, global = 5.06499e-08, cumulative = 2.23202e-05
GAMG:  Solving for p, Initial residual = 0.0266444, Final residual = 7.8e-08, No Iterations 10
time step continuity errors : sum local = 1.73316e-09, global = 4.2092e-10, cumulative = 2.23206e-05
ExecutionTime = 1.02 s  ClockTime = 1 s

Courant Number mean: 0.900523 max: 3.9673
Time = 11.75

PIMPLE: iteration 1
smoothSolver:  Solving for Ux, Initial residual = 0.0148871, Final residual = 6.05212e-06, No Iterations 3
smoothSolver:  Solving for Uy, Initial residual = 0.0294041, Final residual = 8.15301e-06, No Iterations 3
GAMG:  Solving for p, Initial residual = 0.0699148, Final residual = 0.000419718, No Iterations 3
time step continuity errors : sum local = 9.37912e-06, global = 8.49404e-08, cumulative = 2.24055e-05
GAMG:  Solving for p, Initial residual = 0.0272821, Final residual = 7.34766e-08, No Iterations 10
time step continuity errors : sum local = 1.66183e-09, global = 3.983e-10, cumulative = 2.24059e-05
ExecutionTime = 1.04 s  ClockTime = 1 s

Courant Number mean: 0.903793 max: 3.96731
Time = 12

PIMPLE: iteration 1
smoothSolver:  Solving for Ux, Initial residual = 0.0150045, Final residual = 6.43733e-06, No Iterations 3
smoothSolver:  Solving for Uy, Initial residual = 0.0300547, Final residual = 9.1013e-06, No Iterations 3
GAMG:  Solving for p, Initial residual = 0.0725684, Final residual = 0.000442438, No Iterations 3
time step continuity errors : sum local = 1.00317e-05, global = 1.47374e-07, cumulative = 2.25533e-05
GAMG:  Solving for p, Initial residual = 0.028395, Final residual = 8.21335e-08, No Iterations 10
time step continuity errors : sum local = 1.87945e-09, global = 5.09877e-10, cumulative = 2.25538e-05
ExecutionTime = 1.05 s  ClockTime = 1 s

Courant Number mean: 0.907228 max: 3.96731
Time = 12.25

PIMPLE: iteration 1
smoothSolver:  Solving for Ux, Initial residual = 0.0152992, Final residual = 6.86804e-06, No Iterations 3
smoothSolver:  Solving for Uy, Initial residual = 0.0305031, Final residual = 1.06573e-06, No Iterations 4
GAMG:  Solving for p, Initial residual = 0.0726302, Final residual = 0.000406294, No Iterations 3
time step continuity errors : sum local = 9.30325e-06, global = 1.42089e-07, cumulative = 2.26959e-05
GAMG:  Solving for p, Initial residual = 0.0297148, Final residual = 8.31053e-08, No Iterations 10
time step continuity errors : sum local = 1.91892e-09, global = 5.16332e-10, cumulative = 2.26964e-05
ExecutionTime = 1.07 s  ClockTime = 1 s

Courant Number mean: 0.910407 max: 3.9673
Time = 12.5

PIMPLE: iteration 1
smoothSolver:  Solving for Ux, Initial residual = 0.0155009, Final residual = 7.47387e-06, No Iterations 3
smoothSolver:  Solving for Uy, Initial residual = 0.0309433, Final residual = 1.18524e-06, No Iterations 4
GAMG:  Solving for p, Initial residual = 0.0754397, Final residual = 0.000401969, No Iterations 3
time step continuity errors : sum local = 9.33471e-06, global = 2.1694e-07, cumulative = 2.29134e-05
GAMG:  Solving for p, Initial residual = 0.0305985, Final residual = 9.54007e-08, No Iterations 10
time step continuity errors : sum local = 2.23911e-09, global = 6.19083e-10, cumulative = 2.2914e-05
ExecutionTime = 1.08 s  ClockTime = 1 s

Courant Number mean: 0.913466 max: 3.96727
Time = 12.75

PIMPLE: iteration 1
smoothSolver:  Solving for Ux, Initial residual = 0.0156098, Final residual = 8.06538e-06, No Iterations 3
smoothSolver:  Solving for Uy, Initial residual = 0.0314762, Final residual = 1.2984e-06, No Iterations 4
GAMG:  Solving for p, Initial residual = 0.0778272, Final residual = 0.000431038, No Iterations 3
time step continuity errors : sum local = 1.01523e-05, global = 2.94253e-07, cumulative = 2.32082e-05
GAMG:  Solving for p, Initial residual = 0.0310341, Final residual = 4.25466e-08, No Iterations 11
time step continuity errors : sum local = 1.0154e-09, global = 2.25759e-10, cumulative = 2.32085e-05
ExecutionTime = 1.1 s  ClockTime = 1 s

Courant Number mean: 0.916817 max: 3.96722
Time = 13

PIMPLE: iteration 1
smoothSolver:  Solving for Ux, Initial residual = 0.0158361, Final residual = 8.56279e-06, No Iterations 3
smoothSolver:  Solving for Uy, Initial residual = 0.0320441, Final residual = 1.46225e-06, No Iterations 4
GAMG:  Solving for p, Initial residual = 0.0809763, Final residual = 0.000450144, No Iterations 3
time step continuity errors : sum local = 1.07174e-05, global = 2.43136e-07, cumulative = 2.34516e-05
GAMG:  Solving for p, Initial residual = 0.0321559, Final residual = 4.61734e-08, No Iterations 11
time step continuity errors : sum local = 1.11039e-09, global = 2.48505e-10, cumulative = 2.34519e-05
ExecutionTime = 1.13 s  ClockTime = 1 s

Courant Number mean: 0.920144 max: 3.96716
Time = 13.25

PIMPLE: iteration 1
smoothSolver:  Solving for Ux, Initial residual = 0.0160812, Final residual = 9.32901e-06, No Iterations 3
smoothSolver:  Solving for Uy, Initial residual = 0.0323959, Final residual = 1.64506e-06, No Iterations 4
GAMG:  Solving for p, Initial residual = 0.0803414, Final residual = 0.000468659, No Iterations 3
time step continuity errors : sum local = 1.12354e-05, global = 2.65797e-07, cumulative = 2.37176e-05
GAMG:  Solving for p, Initial residual = 0.0334473, Final residual = 5.21013e-08, No Iterations 11
time step continuity errors : sum local = 1.2576e-09, global = 2.82457e-10, cumulative = 2.37179e-05
ExecutionTime = 1.15 s  ClockTime = 1 s

Courant Number mean: 0.923133 max: 3.96709
Time = 13.5

PIMPLE: iteration 1
smoothSolver:  Solving for Ux, Initial residual = 0.0161891, Final residual = 9.98292e-06, No Iterations 3
smoothSolver:  Solving for Uy, Initial residual = 0.0329952, Final residual = 1.79386e-06, No Iterations 4
GAMG:  Solving for p, Initial residual = 0.0823577, Final residual = 0.000495073, No Iterations 3
time step continuity errors : sum local = 1.19741e-05, global = 3.10386e-07, cumulative = 2.40283e-05
GAMG:  Solving for p, Initial residual = 0.0338477, Final residual = 5.3626e-08, No Iterations 11
time step continuity errors : sum local = 1.31049e-09, global = 3.08198e-10, cumulative = 2.40286e-05
ExecutionTime = 1.18 s  ClockTime = 1 s

Courant Number mean: 0.926319 max: 3.96701
Time = 13.75

PIMPLE: iteration 1
smoothSolver:  Solving for Ux, Initial residual = 0.0162555, Final residual = 1.03229e-06, No Iterations 4
smoothSolver:  Solving for Uy, Initial residual = 0.0333141, Final residual = 1.99634e-06, No Iterations 4
GAMG:  Solving for p, Initial residual = 0.084057, Final residual = 0.000498783, No Iterations 3
time step continuity errors : sum local = 1.21565e-05, global = 2.31208e-07, cumulative = 2.42598e-05
GAMG:  Solving for p, Initial residual = 0.0341875, Final residual = 5.15015e-08, No Iterations 11
time step continuity errors : sum local = 1.26859e-09, global = 2.82003e-10, cumulative = 2.42601e-05
ExecutionTime = 1.19 s  ClockTime = 2 s

Courant Number mean: 0.929753 max: 3.96694
Time = 14

PIMPLE: iteration 1
smoothSolver:  Solving for Ux, Initial residual = 0.0163856, Final residual = 1.14149e-06, No Iterations 4
smoothSolver:  Solving for Uy, Initial residual = 0.0335248, Final residual = 2.24819e-06, No Iterations 4
GAMG:  Solving for p, Initial residual = 0.0862821, Final residual = 0.00049554, No Iterations 3
time step continuity errors : sum local = 1.21785e-05, global = 4.93799e-08, cumulative = 2.43095e-05
GAMG:  Solving for p, Initial residual = 0.0353111, Final residual = 5.34287e-08, No Iterations 11
time step continuity errors : sum local = 1.32212e-09, global = 3.06367e-10, cumulative = 2.43098e-05
ExecutionTime = 1.23 s  ClockTime = 2 s

Courant Number mean: 0.932757 max: 3.96685
Time = 14.25

PIMPLE: iteration 1
smoothSolver:  Solving for Ux, Initial residual = 0.0164433, Final residual = 1.1805e-06, No Iterations 4
smoothSolver:  Solving for Uy, Initial residual = 0.0341546, Final residual = 2.42832e-06, No Iterations 4
GAMG:  Solving for p, Initial residual = 0.084559, Final residual = 0.000497755, No Iterations 3
time step continuity errors : sum local = 1.23438e-05, global = 2.41379e-07, cumulative = 2.45512e-05
GAMG:  Solving for p, Initial residual = 0.0354344, Final residual = 4.86232e-08, No Iterations 11
time step continuity errors : sum local = 1.2112e-09, global = 2.56314e-10, cumulative = 2.45514e-05
ExecutionTime = 1.26 s  ClockTime = 2 s

Courant Number mean: 0.936143 max: 3.96676
Time = 14.5

PIMPLE: iteration 1
smoothSolver:  Solving for Ux, Initial residual = 0.0164546, Final residual = 1.30824e-06, No Iterations 4
smoothSolver:  Solving for Uy, Initial residual = 0.0342626, Final residual = 2.69221e-06, No Iterations 4
GAMG:  Solving for p, Initial residual = 0.0867798, Final residual = 0.000491951, No Iterations 3
time step continuity errors : sum local = 1.22063e-05, global = 9.87121e-08, cumulative = 2.46501e-05
GAMG:  Solving for p, Initial residual = 0.0362153, Final residual = 4.32706e-08, No Iterations 11
time step continuity errors : sum local = 1.07897e-09, global = 2.46582e-10, cumulative = 2.46504e-05
ExecutionTime = 1.28 s  ClockTime = 2 s

Courant Number mean: 0.939447 max: 3.96667
Time = 14.75

PIMPLE: iteration 1
smoothSolver:  Solving for Ux, Initial residual = 0.0164211, Final residual = 1.41593e-06, No Iterations 4
smoothSolver:  Solving for Uy, Initial residual = 0.0345058, Final residual = 2.97983e-06, No Iterations 4
GAMG:  Solving for p, Initial residual = 0.0872205, Final residual = 0.000482492, No Iterations 3
time step continuity errors : sum local = 1.1998e-05, global = 1.57398e-07, cumulative = 2.48078e-05
GAMG:  Solving for p, Initial residual = 0.03684, Final residual = 4.93924e-08, No Iterations 11
time step continuity errors : sum local = 1.23119e-09, global = 2.88024e-10, cumulative = 2.48081e-05
ExecutionTime = 1.29 s  ClockTime = 2 s

Courant Number mean: 0.942285 max: 3.96658
Time = 15

PIMPLE: iteration 1
smoothSolver:  Solving for Ux, Initial residual = 0.0164823, Final residual = 1.47566e-06, No Iterations 4
smoothSolver:  Solving for Uy, Initial residual = 0.0349588, Final residual = 3.20111e-06, No Iterations 4
GAMG:  Solving for p, Initial residual = 0.0875549, Final residual = 0.000490474, No Iterations 3
time step continuity errors : sum local = 1.23048e-05, global = 1.43177e-07, cumulative = 2.49513e-05
GAMG:  Solving for p, Initial residual = 0.0363763, Final residual = 4.54877e-08, No Iterations 11
time step continuity errors : sum local = 1.14564e-09, global = 2.48116e-10, cumulative = 2.49515e-05
ExecutionTime = 1.31 s  ClockTime = 2 s

Courant Number mean: 0.946069 max: 3.9665
Time = 15.25

PIMPLE: iteration 1
smoothSolver:  Solving for Ux, Initial residual = 0.0163609, Final residual = 1.63661e-06, No Iterations 4
smoothSolver:  Solving for Uy, Initial residual = 0.0346134, Final residual = 3.50201e-06, No Iterations 4
GAMG:  Solving for p, Initial residual = 0.0877815, Final residual = 0.000494114, No Iterations 3
time step continuity errors : sum local = 1.2402e-05, global = -9.45858e-08, cumulative = 2.48569e-05
GAMG:  Solving for p, Initial residual = 0.0368473, Final residual = 5.01891e-08, No Iterations 11
time step continuity errors : sum local = 1.2673e-09, global = 3.39557e-10, cumulative = 2.48573e-05
ExecutionTime = 1.32 s  ClockTime = 2 s

Courant Number mean: 0.949281 max: 3.96641
Time = 15.5

PIMPLE: iteration 1
smoothSolver:  Solving for Ux, Initial residual = 0.0163644, Final residual = 1.71732e-06, No Iterations 4
smoothSolver:  Solving for Uy, Initial residual = 0.0349472, Final residual = 3.8016e-06, No Iterations 4
GAMG:  Solving for p, Initial residual = 0.0886089, Final residual = 0.000492224, No Iterations 3
time step continuity errors : sum local = 1.24163e-05, global = 3.51201e-08, cumulative = 2.48924e-05
GAMG:  Solving for p, Initial residual = 0.0378452, Final residual = 5.63775e-08, No Iterations 11
time step continuity errors : sum local = 1.42132e-09, global = 3.78518e-10, cumulative = 2.48928e-05
ExecutionTime = 1.34 s  ClockTime = 2 s

Courant Number mean: 0.952741 max: 3.96634
Time = 15.75

PIMPLE: iteration 1
smoothSolver:  Solving for Ux, Initial residual = 0.0162919, Final residual = 1.84805e-06, No Iterations 4
smoothSolver:  Solving for Uy, Initial residual = 0.0351589, Final residual = 4.08274e-06, No Iterations 4
GAMG:  Solving for p, Initial residual = 0.087072, Final residual = 0.000526032, No Iterations 3
time step continuity errors : sum local = 1.33054e-05, global = -2.7873e-08, cumulative = 2.48649e-05
GAMG:  Solving for p, Initial residual = 0.0373188, Final residual = 5.29346e-08, No Iterations 11
time step continuity errors : sum local = 1.3422e-09, global = 3.8395e-10, cumulative = 2.48653e-05
ExecutionTime = 1.35 s  ClockTime = 2 s

Courant Number mean: 0.956542 max: 3.96627
Time = 16

PIMPLE: iteration 1
smoothSolver:  Solving for Ux, Initial residual = 0.0161769, Final residual = 1.96206e-06, No Iterations 4
smoothSolver:  Solving for Uy, Initial residual = 0.0348548, Final residual = 4.34973e-06, No Iterations 4
GAMG:  Solving for p, Initial residual = 0.0886495, Final residual = 0.000564042, No Iterations 3
time step continuity errors : sum local = 1.42497e-05, global = 7.96672e-08, cumulative = 2.49449e-05
GAMG:  Solving for p, Initial residual = 0.0376761, Final residual = 5.9088e-08, No Iterations 11
time step continuity errors : sum local = 1.49896e-09, global = 3.81843e-10, cumulative = 2.49453e-05
ExecutionTime = 1.37 s  ClockTime = 2 s

Courant Number mean: 0.959681 max: 3.96622
Time = 16.25

PIMPLE: iteration 1
smoothSolver:  Solving for Ux, Initial residual = 0.0161584, Final residual = 2.06592e-06, No Iterations 4
smoothSolver:  Solving for Uy, Initial residual = 0.0349986, Final residual = 4.66957e-06, No Iterations 4
GAMG:  Solving for p, Initial residual = 0.0897996, Final residual = 0.000632849, No Iterations 3
time step continuity errors : sum local = 1.60638e-05, global = 9.46104e-08, cumulative = 2.50399e-05
GAMG:  Solving for p, Initial residual = 0.038021, Final residual = 5.64022e-08, No Iterations 11
time step continuity errors : sum local = 1.43147e-09, global = 3.9226e-10, cumulative = 2.50403e-05
ExecutionTime = 1.4 s  ClockTime = 2 s

Courant Number mean: 0.963599 max: 3.96617
Time = 16.5

PIMPLE: iteration 1
smoothSolver:  Solving for Ux, Initial residual = 0.0161362, Final residual = 2.20291e-06, No Iterations 4
smoothSolver:  Solving for Uy, Initial residual = 0.0350141, Final residual = 4.92864e-06, No Iterations 4
GAMG:  Solving for p, Initial residual = 0.0880103, Final residual = 0.000674194, No Iterations 3
time step continuity errors : sum local = 1.71391e-05, global = 9.49608e-08, cumulative = 2.51353e-05
GAMG:  Solving for p, Initial residual = 0.0376284, Final residual = 6.05238e-08, No Iterations 11
time step continuity errors : sum local = 1.54735e-09, global = 4.01716e-10, cumulative = 2.51357e-05
ExecutionTime = 1.4 s  ClockTime = 2 s

Courant Number mean: 0.967104 max: 3.96613
Time = 16.75

PIMPLE: iteration 1
smoothSolver:  Solving for Ux, Initial residual = 0.0160323, Final residual = 2.29662e-06, No Iterations 4
smoothSolver:  Solving for Uy, Initial residual = 0.0346585, Final residual = 5.17731e-06, No Iterations 4
GAMG:  Solving for p, Initial residual = 0.0890305, Final residual = 0.000741696, No Iterations 3
time step continuity errors : sum local = 1.88486e-05, global = 1.07167e-08, cumulative = 2.51464e-05
GAMG:  Solving for p, Initial residual = 0.0384577, Final residual = 5.82915e-08, No Iterations 11
time step continuity errors : sum local = 1.48604e-09, global = 4.64909e-10, cumulative = 2.51469e-05
ExecutionTime = 1.43 s  ClockTime = 2 s

Courant Number mean: 0.970639 max: 3.9661
Time = 17

PIMPLE: iteration 1
smoothSolver:  Solving for Ux, Initial residual = 0.0159377, Final residual = 2.42624e-06, No Iterations 4
smoothSolver:  Solving for Uy, Initial residual = 0.0348012, Final residual = 5.4612e-06, No Iterations 4
GAMG:  Solving for p, Initial residual = 0.0894206, Final residual = 0.000786701, No Iterations 3
time step continuity errors : sum local = 2.00706e-05, global = 6.66791e-08, cumulative = 2.52135e-05
GAMG:  Solving for p, Initial residual = 0.0384856, Final residual = 5.15691e-08, No Iterations 11
time step continuity errors : sum local = 1.31766e-09, global = 4.27254e-10, cumulative = 2.5214e-05
ExecutionTime = 1.45 s  ClockTime = 2 s

Courant Number mean: 0.974532 max: 3.96608
Time = 17.25

PIMPLE: iteration 1
smoothSolver:  Solving for Ux, Initial residual = 0.0159426, Final residual = 2.5165e-06, No Iterations 4
smoothSolver:  Solving for Uy, Initial residual = 0.0347399, Final residual = 5.64201e-06, No Iterations 4
GAMG:  Solving for p, Initial residual = 0.0878416, Final residual = 0.000832252, No Iterations 3
time step continuity errors : sum local = 2.12447e-05, global = -1.37982e-09, cumulative = 2.52126e-05
GAMG:  Solving for p, Initial residual = 0.0381695, Final residual = 5.31586e-08, No Iterations 11
time step continuity errors : sum local = 1.36461e-09, global = 4.39503e-10, cumulative = 2.5213e-05
ExecutionTime = 1.46 s  ClockTime = 2 s

Courant Number mean: 0.977922 max: 3.96607
Time = 17.5

PIMPLE: iteration 1
smoothSolver:  Solving for Ux, Initial residual = 0.0158434, Final residual = 2.63199e-06, No Iterations 4
smoothSolver:  Solving for Uy, Initial residual = 0.0340473, Final residual = 5.87405e-06, No Iterations 4
GAMG:  Solving for p, Initial residual = 0.0895566, Final residual = 0.000851777, No Iterations 3
time step continuity errors : sum local = 2.17881e-05, global = 1.16084e-08, cumulative = 2.52246e-05
GAMG:  Solving for p, Initial residual = 0.0386155, Final residual = 4.99991e-08, No Iterations 11
time step continuity errors : sum local = 1.28291e-09, global = 3.7228e-10, cumulative = 2.5225e-05
ExecutionTime = 1.46 s  ClockTime = 2 s

Courant Number mean: 0.981964 max: 3.96607
Time = 17.75

PIMPLE: iteration 1
smoothSolver:  Solving for Ux, Initial residual = 0.015748, Final residual = 2.73128e-06, No Iterations 4
smoothSolver:  Solving for Uy, Initial residual = 0.0344542, Final residual = 6.05588e-06, No Iterations 4
GAMG:  Solving for p, Initial residual = 0.0889072, Final residual = 0.000832234, No Iterations 3
time step continuity errors : sum local = 2.14082e-05, global = -1.25519e-08, cumulative = 2.52125e-05
GAMG:  Solving for p, Initial residual = 0.0384515, Final residual = 5.44269e-08, No Iterations 11
time step continuity errors : sum local = 1.40508e-09, global = 4.27422e-10, cumulative = 2.52129e-05
ExecutionTime = 1.48 s  ClockTime = 2 s

Courant Number mean: 0.98548 max: 3.96607
Time = 18

PIMPLE: iteration 1
smoothSolver:  Solving for Ux, Initial residual = 0.0156868, Final residual = 2.81811e-06, No Iterations 4
smoothSolver:  Solving for Uy, Initial residual = 0.034137, Final residual = 6.21024e-06, No Iterations 4
GAMG:  Solving for p, Initial residual = 0.0882099, Final residual = 0.000812941, No Iterations 3
time step continuity errors : sum local = 2.09165e-05, global = -4.87933e-08, cumulative = 2.51641e-05
GAMG:  Solving for p, Initial residual = 0.0383266, Final residual = 5.51956e-08, No Iterations 11
time step continuity errors : sum local = 1.42794e-09, global = 4.37194e-10, cumulative = 2.51645e-05
ExecutionTime = 1.52 s  ClockTime = 2 s

Courant Number mean: 0.989302 max: 3.96608
Time = 18.25

PIMPLE: iteration 1
smoothSolver:  Solving for Ux, Initial residual = 0.0155565, Final residual = 2.91696e-06, No Iterations 4
smoothSolver:  Solving for Uy, Initial residual = 0.0339272, Final residual = 6.36701e-06, No Iterations 4
GAMG:  Solving for p, Initial residual = 0.0883473, Final residual = 0.000803533, No Iterations 3
time step continuity errors : sum local = 2.07686e-05, global = -7.28877e-09, cumulative = 2.51572e-05
GAMG:  Solving for p, Initial residual = 0.0387279, Final residual = 5.54793e-08, No Iterations 11
time step continuity errors : sum local = 1.44025e-09, global = 4.3345e-10, cumulative = 2.51577e-05
ExecutionTime = 1.53 s  ClockTime = 2 s

Courant Number mean: 0.993129 max: 3.96609
Time = 18.5

PIMPLE: iteration 1
smoothSolver:  Solving for Ux, Initial residual = 0.0155104, Final residual = 2.98766e-06, No Iterations 4
smoothSolver:  Solving for Uy, Initial residual = 0.0338833, Final residual = 6.44186e-06, No Iterations 4
GAMG:  Solving for p, Initial residual = 0.0885358, Final residual = 0.000798335, No Iterations 3
time step continuity errors : sum local = 2.07116e-05, global = -4.67365e-08, cumulative = 2.51109e-05
GAMG:  Solving for p, Initial residual = 0.0384561, Final residual = 5.28287e-08, No Iterations 11
time step continuity errors : sum local = 1.37717e-09, global = 4.08207e-10, cumulative = 2.51113e-05
ExecutionTime = 1.55 s  ClockTime = 2 s

Courant Number mean: 0.996742 max: 3.96611
Time = 18.75

PIMPLE: iteration 1
smoothSolver:  Solving for Ux, Initial residual = 0.0154443, Final residual = 3.06531e-06, No Iterations 4
smoothSolver:  Solving for Uy, Initial residual = 0.0335356, Final residual = 6.50799e-06, No Iterations 4
GAMG:  Solving for p, Initial residual = 0.0883263, Final residual = 0.000763017, No Iterations 3
time step continuity errors : sum local = 1.9802e-05, global = 2.86315e-08, cumulative = 2.514e-05
GAMG:  Solving for p, Initial residual = 0.0382956, Final residual = 5.40411e-08, No Iterations 11
time step continuity errors : sum local = 1.40945e-09, global = 4.0169e-10, cumulative = 2.51404e-05
ExecutionTime = 1.56 s  ClockTime = 2 s

Courant Number mean: 1.00075 max: 3.96612
Time = 19

PIMPLE: iteration 1
smoothSolver:  Solving for Ux, Initial residual = 0.0153071, Final residual = 3.13384e-06, No Iterations 4
smoothSolver:  Solving for Uy, Initial residual = 0.0334204, Final residual = 6.54248e-06, No Iterations 4
GAMG:  Solving for p, Initial residual = 0.0876529, Final residual = 0.000721539, No Iterations 3
time step continuity errors : sum local = 1.88595e-05, global = -6.49925e-08, cumulative = 2.50754e-05
GAMG:  Solving for p, Initial residual = 0.0384249, Final residual = 5.59962e-08, No Iterations 11
time step continuity errors : sum local = 1.47073e-09, global = 4.1416e-10, cumulative = 2.50758e-05
ExecutionTime = 1.58 s  ClockTime = 2 s

Courant Number mean: 1.00428 max: 3.96614
Time = 19.25

PIMPLE: iteration 1
smoothSolver:  Solving for Ux, Initial residual = 0.0152248, Final residual = 3.20663e-06, No Iterations 4
smoothSolver:  Solving for Uy, Initial residual = 0.0333862, Final residual = 6.56249e-06, No Iterations 4
GAMG:  Solving for p, Initial residual = 0.0871145, Final residual = 0.000712185, No Iterations 3
time step continuity errors : sum local = 1.86861e-05, global = 6.83804e-08, cumulative = 2.51442e-05
GAMG:  Solving for p, Initial residual = 0.0376492, Final residual = 5.10209e-08, No Iterations 11
time step continuity errors : sum local = 1.34807e-09, global = 3.8853e-10, cumulative = 2.51446e-05
ExecutionTime = 1.59 s  ClockTime = 2 s

Courant Number mean: 1.00829 max: 3.96616
Time = 19.5

PIMPLE: iteration 1
smoothSolver:  Solving for Ux, Initial residual = 0.0150837, Final residual = 3.26332e-06, No Iterations 4
smoothSolver:  Solving for Uy, Initial residual = 0.0329993, Final residual = 6.5238e-06, No Iterations 4
GAMG:  Solving for p, Initial residual = 0.0861028, Final residual = 0.000703943, No Iterations 3
time step continuity errors : sum local = 1.85578e-05, global = 6.76016e-08, cumulative = 2.52122e-05
GAMG:  Solving for p, Initial residual = 0.037686, Final residual = 5.72445e-08, No Iterations 11
time step continuity errors : sum local = 1.51759e-09, global = 3.64125e-10, cumulative = 2.52125e-05
ExecutionTime = 1.61 s  ClockTime = 2 s

Courant Number mean: 1.01182 max: 3.96618
Time = 19.75

PIMPLE: iteration 1
smoothSolver:  Solving for Ux, Initial residual = 0.0149284, Final residual = 3.31423e-06, No Iterations 4
smoothSolver:  Solving for Uy, Initial residual = 0.0331985, Final residual = 6.47548e-06, No Iterations 4
GAMG:  Solving for p, Initial residual = 0.0868335, Final residual = 0.000683284, No Iterations 3
time step continuity errors : sum local = 1.81509e-05, global = 1.68912e-07, cumulative = 2.53815e-05
GAMG:  Solving for p, Initial residual = 0.0378498, Final residual = 4.908e-08, No Iterations 11
time step continuity errors : sum local = 1.3108e-09, global = 3.41927e-10, cumulative = 2.53818e-05
ExecutionTime = 1.62 s  ClockTime = 2 s

Courant Number mean: 1.01573 max: 3.96621
Time = 20

PIMPLE: iteration 1
smoothSolver:  Solving for Ux, Initial residual = 0.0148537, Final residual = 3.36369e-06, No Iterations 4
smoothSolver:  Solving for Uy, Initial residual = 0.0328937, Final residual = 6.37567e-06, No Iterations 4
GAMG:  Solving for p, Initial residual = 0.0867356, Final residual = 0.00066891, No Iterations 3
time step continuity errors : sum local = 1.78258e-05, global = 2.44154e-07, cumulative = 2.56259e-05
GAMG:  Solving for p, Initial residual = 0.0374579, Final residual = 4.4149e-08, No Iterations 11
time step continuity errors : sum local = 1.18477e-09, global = 3.13147e-10, cumulative = 2.56263e-05
ExecutionTime = 1.64 s  ClockTime = 2 s

Courant Number mean: 1.01945 max: 3.96622
Time = 20.25

PIMPLE: iteration 1
smoothSolver:  Solving for Ux, Initial residual = 0.0147608, Final residual = 3.40781e-06, No Iterations 4
smoothSolver:  Solving for Uy, Initial residual = 0.0327817, Final residual = 6.25748e-06, No Iterations 4
GAMG:  Solving for p, Initial residual = 0.0853518, Final residual = 0.000634422, No Iterations 3
time step continuity errors : sum local = 1.70473e-05, global = 2.98756e-07, cumulative = 2.5925e-05
GAMG:  Solving for p, Initial residual = 0.0375692, Final residual = 4.29329e-08, No Iterations 11
time step continuity errors : sum local = 1.15826e-09, global = 2.78704e-10, cumulative = 2.59253e-05
ExecutionTime = 1.66 s  ClockTime = 2 s

Courant Number mean: 1.02302 max: 3.96624
Time = 20.5

PIMPLE: iteration 1
smoothSolver:  Solving for Ux, Initial residual = 0.0147126, Final residual = 3.44868e-06, No Iterations 4
smoothSolver:  Solving for Uy, Initial residual = 0.032746, Final residual = 6.11602e-06, No Iterations 4
GAMG:  Solving for p, Initial residual = 0.0867445, Final residual = 0.00060931, No Iterations 3
time step continuity errors : sum local = 1.64505e-05, global = 3.04535e-07, cumulative = 2.62298e-05
GAMG:  Solving for p, Initial residual = 0.0373459, Final residual = 3.95348e-08, No Iterations 11
time step continuity errors : sum local = 1.07153e-09, global = 2.90167e-10, cumulative = 2.62301e-05
ExecutionTime = 1.67 s  ClockTime = 2 s

Courant Number mean: 1.02717 max: 3.96625
Time = 20.75

PIMPLE: iteration 1
smoothSolver:  Solving for Ux, Initial residual = 0.0146273, Final residual = 3.46557e-06, No Iterations 4
smoothSolver:  Solving for Uy, Initial residual = 0.0324702, Final residual = 5.9708e-06, No Iterations 4
GAMG:  Solving for p, Initial residual = 0.0857019, Final residual = 0.000568177, No Iterations 3
time step continuity errors : sum local = 1.53896e-05, global = 3.46031e-07, cumulative = 2.65762e-05
GAMG:  Solving for p, Initial residual = 0.0369752, Final residual = 9.97218e-08, No Iterations 10
time step continuity errors : sum local = 2.71212e-09, global = 8.31397e-10, cumulative = 2.6577e-05
ExecutionTime = 1.7 s  ClockTime = 2 s

Courant Number mean: 1.03052 max: 3.96626
Time = 21

PIMPLE: iteration 1
smoothSolver:  Solving for Ux, Initial residual = 0.0145703, Final residual = 3.48246e-06, No Iterations 4
smoothSolver:  Solving for Uy, Initial residual = 0.0325007, Final residual = 5.82803e-06, No Iterations 4
GAMG:  Solving for p, Initial residual = 0.0841591, Final residual = 0.000562627, No Iterations 3
time step continuity errors : sum local = 1.53759e-05, global = 2.15455e-07, cumulative = 2.67924e-05
GAMG:  Solving for p, Initial residual = 0.0369033, Final residual = 8.31033e-08, No Iterations 11
time step continuity errors : sum local = 2.2823e-09, global = -3.47755e-10, cumulative = 2.67921e-05
ExecutionTime = 1.73 s  ClockTime = 2 s

Courant Number mean: 1.03448 max: 3.96626
Time = 21.25

PIMPLE: iteration 1
smoothSolver:  Solving for Ux, Initial residual = 0.01451, Final residual = 3.50436e-06, No Iterations 4
smoothSolver:  Solving for Uy, Initial residual = 0.0324121, Final residual = 5.63599e-06, No Iterations 4
GAMG:  Solving for p, Initial residual = 0.0845943, Final residual = 0.000539558, No Iterations 3
time step continuity errors : sum local = 1.48392e-05, global = 3.14289e-07, cumulative = 2.71064e-05
GAMG:  Solving for p, Initial residual = 0.0365957, Final residual = 7.70513e-08, No Iterations 11
time step continuity errors : sum local = 2.12721e-09, global = -2.73327e-10, cumulative = 2.71061e-05
ExecutionTime = 1.77 s  ClockTime = 2 s

Courant Number mean: 1.03801 max: 3.96626
Time = 21.5

PIMPLE: iteration 1
smoothSolver:  Solving for Ux, Initial residual = 0.0144486, Final residual = 3.50871e-06, No Iterations 4
smoothSolver:  Solving for Uy, Initial residual = 0.0321831, Final residual = 5.48949e-06, No Iterations 4
GAMG:  Solving for p, Initial residual = 0.0846089, Final residual = 0.000518441, No Iterations 3
time step continuity errors : sum local = 1.43595e-05, global = 2.00718e-07, cumulative = 2.73068e-05
GAMG:  Solving for p, Initial residual = 0.036735, Final residual = 7.85223e-08, No Iterations 11
time step continuity errors : sum local = 2.18342e-09, global = -4.05044e-10, cumulative = 2.73064e-05
ExecutionTime = 1.8 s  ClockTime = 2 s

Courant Number mean: 1.04156 max: 3.96626
Time = 21.75

PIMPLE: iteration 1
smoothSolver:  Solving for Ux, Initial residual = 0.0143345, Final residual = 3.50969e-06, No Iterations 4
smoothSolver:  Solving for Uy, Initial residual = 0.0323381, Final residual = 5.28925e-06, No Iterations 4
GAMG:  Solving for p, Initial residual = 0.0841229, Final residual = 0.000496034, No Iterations 3
time step continuity errors : sum local = 1.38824e-05, global = 2.49635e-07, cumulative = 2.75561e-05
GAMG:  Solving for p, Initial residual = 0.0362583, Final residual = 7.68615e-08, No Iterations 11
time step continuity errors : sum local = 2.15965e-09, global = -4.0412e-10, cumulative = 2.75556e-05
ExecutionTime = 1.81 s  ClockTime = 2 s

Courant Number mean: 1.04513 max: 3.96625
Time = 22

PIMPLE: iteration 1
smoothSolver:  Solving for Ux, Initial residual = 0.014274, Final residual = 3.49476e-06, No Iterations 4
smoothSolver:  Solving for Uy, Initial residual = 0.0321487, Final residual = 5.09781e-06, No Iterations 4
GAMG:  Solving for p, Initial residual = 0.0842836, Final residual = 0.000482017, No Iterations 3
time step continuity errors : sum local = 1.35685e-05, global = 1.80662e-07, cumulative = 2.77363e-05
GAMG:  Solving for p, Initial residual = 0.0363264, Final residual = 7.52521e-08, No Iterations 11
time step continuity errors : sum local = 2.12356e-09, global = -4.15544e-10, cumulative = 2.77359e-05
ExecutionTime = 1.83 s  ClockTime = 2 s

Courant Number mean: 1.0485 max: 3.96624
Time = 22.25

PIMPLE: iteration 1
smoothSolver:  Solving for Ux, Initial residual = 0.0141925, Final residual = 3.48153e-06, No Iterations 4
smoothSolver:  Solving for Uy, Initial residual = 0.0320779, Final residual = 4.97521e-06, No Iterations 4
GAMG:  Solving for p, Initial residual = 0.0838775, Final residual = 0.000483969, No Iterations 3
time step continuity errors : sum local = 1.37084e-05, global = 1.74545e-07, cumulative = 2.79104e-05
GAMG:  Solving for p, Initial residual = 0.0359546, Final residual = 7.71886e-08, No Iterations 11
time step continuity errors : sum local = 2.18988e-09, global = -4.33984e-10, cumulative = 2.791e-05
ExecutionTime = 1.86 s  ClockTime = 2 s

Courant Number mean: 1.05204 max: 3.96623
Time = 22.5

PIMPLE: iteration 1
smoothSolver:  Solving for Ux, Initial residual = 0.0141311, Final residual = 3.46307e-06, No Iterations 4
smoothSolver:  Solving for Uy, Initial residual = 0.0322437, Final residual = 4.78838e-06, No Iterations 4
GAMG:  Solving for p, Initial residual = 0.0840725, Final residual = 0.000475767, No Iterations 3
time step continuity errors : sum local = 1.36079e-05, global = 1.24395e-07, cumulative = 2.80344e-05
GAMG:  Solving for p, Initial residual = 0.0359364, Final residual = 7.0347e-08, No Iterations 11
time step continuity errors : sum local = 2.0192e-09, global = -3.97074e-10, cumulative = 2.8034e-05
ExecutionTime = 1.87 s  ClockTime = 2 s

Courant Number mean: 1.05527 max: 3.96622
Time = 22.75

PIMPLE: iteration 1
smoothSolver:  Solving for Ux, Initial residual = 0.0141102, Final residual = 3.43304e-06, No Iterations 4
smoothSolver:  Solving for Uy, Initial residual = 0.0319557, Final residual = 4.64843e-06, No Iterations 4
GAMG:  Solving for p, Initial residual = 0.0837756, Final residual = 0.000471029, No Iterations 3
time step continuity errors : sum local = 1.35647e-05, global = 6.16598e-08, cumulative = 2.80957e-05
GAMG:  Solving for p, Initial residual = 0.0358225, Final residual = 7.12409e-08, No Iterations 11
time step continuity errors : sum local = 2.05936e-09, global = -4.12911e-10, cumulative = 2.80953e-05
ExecutionTime = 1.89 s  ClockTime = 2 s

Courant Number mean: 1.05893 max: 3.96621
Time = 23

PIMPLE: iteration 1
smoothSolver:  Solving for Ux, Initial residual = 0.0140228, Final residual = 3.41018e-06, No Iterations 4
smoothSolver:  Solving for Uy, Initial residual = 0.0319952, Final residual = 4.53306e-06, No Iterations 4
GAMG:  Solving for p, Initial residual = 0.0832926, Final residual = 0.000436149, No Iterations 3
time step continuity errors : sum local = 1.26718e-05, global = 1.13282e-07, cumulative = 2.82085e-05
GAMG:  Solving for p, Initial residual = 0.0355626, Final residual = 6.52779e-08, No Iterations 11
time step continuity errors : sum local = 1.90105e-09, global = -3.68633e-10, cumulative = 2.82082e-05
ExecutionTime = 1.91 s  ClockTime = 2 s

Courant Number mean: 1.06189 max: 3.96619
Time = 23.25

PIMPLE: iteration 1
smoothSolver:  Solving for Ux, Initial residual = 0.0139393, Final residual = 3.36547e-06, No Iterations 4
smoothSolver:  Solving for Uy, Initial residual = 0.0319213, Final residual = 4.41288e-06, No Iterations 4
GAMG:  Solving for p, Initial residual = 0.0833954, Final residual = 0.000420215, No Iterations 3
time step continuity errors : sum local = 1.23505e-05, global = -2.75903e-07, cumulative = 2.79323e-05
GAMG:  Solving for p, Initial residual = 0.0355914, Final residual = 6.19998e-08, No Iterations 11
time step continuity errors : sum local = 1.82983e-09, global = -3.90487e-10, cumulative = 2.79319e-05
ExecutionTime = 1.92 s  ClockTime = 2 s

Courant Number mean: 1.06501 max: 3.96618
Time = 23.5

PIMPLE: iteration 1
smoothSolver:  Solving for Ux, Initial residual = 0.0138155, Final residual = 3.32924e-06, No Iterations 4
smoothSolver:  Solving for Uy, Initial residual = 0.0318588, Final residual = 4.30384e-06, No Iterations 4
GAMG:  Solving for p, Initial residual = 0.0849404, Final residual = 0.000398757, No Iterations 3
time step continuity errors : sum local = 1.18053e-05, global = 5.07061e-09, cumulative = 2.79369e-05
GAMG:  Solving for p, Initial residual = 0.0353543, Final residual = 6.19925e-08, No Iterations 11
time step continuity errors : sum local = 1.83722e-09, global = -3.92208e-10, cumulative = 2.79365e-05
ExecutionTime = 1.94 s  ClockTime = 2 s

Courant Number mean: 1.06837 max: 3.96616
Time = 23.75

PIMPLE: iteration 1
smoothSolver:  Solving for Ux, Initial residual = 0.0137191, Final residual = 3.27943e-06, No Iterations 4
smoothSolver:  Solving for Uy, Initial residual = 0.0316232, Final residual = 4.24681e-06, No Iterations 4
GAMG:  Solving for p, Initial residual = 0.0834128, Final residual = 0.000410278, No Iterations 3
time step continuity errors : sum local = 1.22037e-05, global = -1.9466e-07, cumulative = 2.77419e-05
GAMG:  Solving for p, Initial residual = 0.0351368, Final residual = 5.94967e-08, No Iterations 11
time step continuity errors : sum local = 1.76972e-09, global = -3.9246e-10, cumulative = 2.77415e-05
ExecutionTime = 1.95 s  ClockTime = 2 s

Courant Number mean: 1.07083 max: 3.96614
Time = 24

PIMPLE: iteration 1
smoothSolver:  Solving for Ux, Initial residual = 0.0135875, Final residual = 3.22615e-06, No Iterations 4
smoothSolver:  Solving for Uy, Initial residual = 0.0314376, Final residual = 4.23082e-06, No Iterations 4
GAMG:  Solving for p, Initial residual = 0.0835791, Final residual = 0.000402985, No Iterations 3
time step continuity errors : sum local = 1.21014e-05, global = 5.81131e-09, cumulative = 2.77473e-05
GAMG:  Solving for p, Initial residual = 0.0349512, Final residual = 5.79064e-08, No Iterations 11
time step continuity errors : sum local = 1.74316e-09, global = -3.79917e-10, cumulative = 2.77469e-05
ExecutionTime = 1.97 s  ClockTime = 2 s

Courant Number mean: 1.07425 max: 3.96613
Time = 24.25

PIMPLE: iteration 1
smoothSolver:  Solving for Ux, Initial residual = 0.0134463, Final residual = 3.18028e-06, No Iterations 4
smoothSolver:  Solving for Uy, Initial residual = 0.0313458, Final residual = 4.13004e-06, No Iterations 4
GAMG:  Solving for p, Initial residual = 0.0834637, Final residual = 0.000417027, No Iterations 3
time step continuity errors : sum local = 1.25739e-05, global = -9.92021e-08, cumulative = 2.76477e-05
GAMG:  Solving for p, Initial residual = 0.0345028, Final residual = 5.90272e-08, No Iterations 11
time step continuity errors : sum local = 1.78215e-09, global = -4.03015e-10, cumulative = 2.76473e-05
ExecutionTime = 1.98 s  ClockTime = 2 s

Courant Number mean: 1.07728 max: 3.96612
Time = 24.5

PIMPLE: iteration 1
smoothSolver:  Solving for Ux, Initial residual = 0.0132673, Final residual = 3.11126e-06, No Iterations 4
smoothSolver:  Solving for Uy, Initial residual = 0.0310464, Final residual = 4.24135e-06, No Iterations 4
GAMG:  Solving for p, Initial residual = 0.0819652, Final residual = 0.00039023, No Iterations 3
time step continuity errors : sum local = 1.18173e-05, global = 1.13396e-07, cumulative = 2.77607e-05
GAMG:  Solving for p, Initial residual = 0.03459, Final residual = 5.83639e-08, No Iterations 11
time step continuity errors : sum local = 1.76735e-09, global = -3.82723e-10, cumulative = 2.77603e-05
ExecutionTime = 2 s  ClockTime = 2 s

Courant Number mean: 1.07952 max: 3.96611
Time = 24.75

PIMPLE: iteration 1
smoothSolver:  Solving for Ux, Initial residual = 0.0130368, Final residual = 3.06257e-06, No Iterations 4
smoothSolver:  Solving for Uy, Initial residual = 0.0308008, Final residual = 4.26085e-06, No Iterations 4
GAMG:  Solving for p, Initial residual = 0.0824412, Final residual = 0.000411844, No Iterations 3
time step continuity errors : sum local = 1.25272e-05, global = 1.06255e-07, cumulative = 2.78666e-05
GAMG:  Solving for p, Initial residual = 0.0344162, Final residual = 5.98584e-08, No Iterations 11
time step continuity errors : sum local = 1.81978e-09, global = -4.08307e-10, cumulative = 2.78662e-05
ExecutionTime = 2.02 s  ClockTime = 2 s

Courant Number mean: 1.08248 max: 3.9661
Time = 25

PIMPLE: iteration 1
smoothSolver:  Solving for Ux, Initial residual = 0.0128026, Final residual = 2.98921e-06, No Iterations 4
smoothSolver:  Solving for Uy, Initial residual = 0.0304945, Final residual = 4.25524e-06, No Iterations 4
GAMG:  Solving for p, Initial residual = 0.0828115, Final residual = 0.000416874, No Iterations 3
time step continuity errors : sum local = 1.26792e-05, global = 3.07603e-07, cumulative = 2.81738e-05
GAMG:  Solving for p, Initial residual = 0.0336494, Final residual = 5.7832e-08, No Iterations 11
time step continuity errors : sum local = 1.75698e-09, global = -3.56579e-10, cumulative = 2.81734e-05
ExecutionTime = 2.06 s  ClockTime = 2 s

Courant Number mean: 1.08523 max: 3.96609
Time = 25.25

PIMPLE: iteration 1
smoothSolver:  Solving for Ux, Initial residual = 0.0125668, Final residual = 2.9127e-06, No Iterations 4
smoothSolver:  Solving for Uy, Initial residual = 0.0299261, Final residual = 4.45604e-06, No Iterations 4
GAMG:  Solving for p, Initial residual = 0.0816887, Final residual = 0.00043466, No Iterations 3
time step continuity errors : sum local = 1.31889e-05, global = 3.47591e-07, cumulative = 2.8521e-05
GAMG:  Solving for p, Initial residual = 0.0335637, Final residual = 6.17682e-08, No Iterations 11
time step continuity errors : sum local = 1.86964e-09, global = -4.11162e-10, cumulative = 2.85206e-05
ExecutionTime = 2.09 s  ClockTime = 2 s

Courant Number mean: 1.08747 max: 3.96609
Time = 25.5

PIMPLE: iteration 1
smoothSolver:  Solving for Ux, Initial residual = 0.0122445, Final residual = 2.83101e-06, No Iterations 4
smoothSolver:  Solving for Uy, Initial residual = 0.0295786, Final residual = 4.4816e-06, No Iterations 4
GAMG:  Solving for p, Initial residual = 0.0806812, Final residual = 0.000437062, No Iterations 3
time step continuity errors : sum local = 1.32581e-05, global = 5.29551e-07, cumulative = 2.90502e-05
GAMG:  Solving for p, Initial residual = 0.0332249, Final residual = 6.24056e-08, No Iterations 11
time step continuity errors : sum local = 1.88965e-09, global = -3.94863e-10, cumulative = 2.90498e-05
ExecutionTime = 2.11 s  ClockTime = 2 s

Courant Number mean: 1.08985 max: 3.96608
Time = 25.75

PIMPLE: iteration 1
smoothSolver:  Solving for Ux, Initial residual = 0.0119257, Final residual = 2.75048e-06, No Iterations 4
smoothSolver:  Solving for Uy, Initial residual = 0.0291084, Final residual = 4.67175e-06, No Iterations 4
GAMG:  Solving for p, Initial residual = 0.0789361, Final residual = 0.000433648, No Iterations 3
time step continuity errors : sum local = 1.31374e-05, global = 7.38063e-07, cumulative = 2.97878e-05
GAMG:  Solving for p, Initial residual = 0.0323067, Final residual = 6.21233e-08, No Iterations 11
time step continuity errors : sum local = 1.87966e-09, global = -3.82175e-10, cumulative = 2.97874e-05
ExecutionTime = 2.12 s  ClockTime = 2 s

Courant Number mean: 1.09218 max: 3.96608
Time = 26

PIMPLE: iteration 1
smoothSolver:  Solving for Ux, Initial residual = 0.0116084, Final residual = 2.68799e-06, No Iterations 4
smoothSolver:  Solving for Uy, Initial residual = 0.0283889, Final residual = 4.83558e-06, No Iterations 4
GAMG:  Solving for p, Initial residual = 0.0763643, Final residual = 0.000430964, No Iterations 3
time step continuity errors : sum local = 1.29912e-05, global = 7.25682e-07, cumulative = 3.05131e-05
GAMG:  Solving for p, Initial residual = 0.0320789, Final residual = 6.20779e-08, No Iterations 11
time step continuity errors : sum local = 1.86146e-09, global = -3.77301e-10, cumulative = 3.05128e-05
ExecutionTime = 2.15 s  ClockTime = 2 s

Courant Number mean: 1.09426 max: 3.96608
Time = 26.25

PIMPLE: iteration 1
smoothSolver:  Solving for Ux, Initial residual = 0.0112286, Final residual = 2.61503e-06, No Iterations 4
smoothSolver:  Solving for Uy, Initial residual = 0.0277496, Final residual = 4.94291e-06, No Iterations 4
GAMG:  Solving for p, Initial residual = 0.0756545, Final residual = 0.000435364, No Iterations 3
time step continuity errors : sum local = 1.29926e-05, global = 7.81815e-07, cumulative = 3.12946e-05
GAMG:  Solving for p, Initial residual = 0.0311848, Final residual = 6.30137e-08, No Iterations 11
time step continuity errors : sum local = 1.87083e-09, global = -4.05406e-10, cumulative = 3.12942e-05
ExecutionTime = 2.17 s  ClockTime = 2 s

Courant Number mean: 1.09645 max: 3.96609
Time = 26.5

PIMPLE: iteration 1
smoothSolver:  Solving for Ux, Initial residual = 0.0109534, Final residual = 2.54239e-06, No Iterations 4
smoothSolver:  Solving for Uy, Initial residual = 0.0268576, Final residual = 5.16439e-06, No Iterations 4
GAMG:  Solving for p, Initial residual = 0.0747735, Final residual = 0.000445589, No Iterations 3
time step continuity errors : sum local = 1.31713e-05, global = 8.45289e-07, cumulative = 3.21394e-05
GAMG:  Solving for p, Initial residual = 0.0305111, Final residual = 6.10176e-08, No Iterations 11
time step continuity errors : sum local = 1.79384e-09, global = -3.7736e-10, cumulative = 3.21391e-05
ExecutionTime = 2.18 s  ClockTime = 3 s

Courant Number mean: 1.09815 max: 3.96609
Time = 26.75

PIMPLE: iteration 1
smoothSolver:  Solving for Ux, Initial residual = 0.0106853, Final residual = 2.52203e-06, No Iterations 4
smoothSolver:  Solving for Uy, Initial residual = 0.0260635, Final residual = 5.31216e-06, No Iterations 4
GAMG:  Solving for p, Initial residual = 0.0729295, Final residual = 0.000436655, No Iterations 3
time step continuity errors : sum local = 1.27968e-05, global = 8.342e-07, cumulative = 3.29733e-05
GAMG:  Solving for p, Initial residual = 0.0298611, Final residual = 6.08815e-08, No Iterations 11
time step continuity errors : sum local = 1.76956e-09, global = -4.18556e-10, cumulative = 3.29729e-05
ExecutionTime = 2.22 s  ClockTime = 3 s

Courant Number mean: 1.09982 max: 3.9661
Time = 27

PIMPLE: iteration 1
smoothSolver:  Solving for Ux, Initial residual = 0.0104351, Final residual = 2.49566e-06, No Iterations 4
smoothSolver:  Solving for Uy, Initial residual = 0.0252142, Final residual = 5.48726e-06, No Iterations 4
[...]
Time = 993.5

PIMPLE: iteration 1
smoothSolver:  Solving for Ux, Initial residual = 9.84662e-06, Final residual = 9.84662e-06, No Iterations 0
smoothSolver:  Solving for Uy, Initial residual = 6.59697e-05, Final residual = 3.67982e-06, No Iterations 1
GAMG:  Solving for p, Initial residual = 0.000334574, Final residual = 1.77981e-06, No Iterations 3
time step continuity errors : sum local = 1.42756e-08, global = -2.99148e-09, cumulative = 0.000250256
GAMG:  Solving for p, Initial residual = 0.000268472, Final residual = 4.96238e-08, No Iterations 6
time step continuity errors : sum local = 3.9804e-10, global = 9.8279e-11, cumulative = 0.000250256
ExecutionTime = 66.2 s  ClockTime = 67 s

Courant Number mean: 0.935673 max: 3.96609
Time = 993.75

PIMPLE: iteration 1
smoothSolver:  Solving for Ux, Initial residual = 1.0024e-05, Final residual = 6.17459e-07, No Iterations 1
smoothSolver:  Solving for Uy, Initial residual = 6.64734e-05, Final residual = 3.86549e-06, No Iterations 1
GAMG:  Solving for p, Initial residual = 0.000302502, Final residual = 8.77641e-07, No Iterations 4
time step continuity errors : sum local = 7.03941e-09, global = 2.55e-09, cumulative = 0.000250259
GAMG:  Solving for p, Initial residual = 0.000147314, Final residual = 4.51175e-08, No Iterations 6
time step continuity errors : sum local = 3.61835e-10, global = -1.2415e-10, cumulative = 0.000250258
ExecutionTime = 66.21 s  ClockTime = 67 s

Courant Number mean: 0.935675 max: 3.96609
Time = 994

PIMPLE: iteration 1
smoothSolver:  Solving for Ux, Initial residual = 9.77083e-06, Final residual = 9.77083e-06, No Iterations 0
smoothSolver:  Solving for Uy, Initial residual = 6.61708e-05, Final residual = 3.75514e-06, No Iterations 1
GAMG:  Solving for p, Initial residual = 0.000336083, Final residual = 1.64035e-06, No Iterations 3
time step continuity errors : sum local = 1.31565e-08, global = -3.65952e-09, cumulative = 0.000250255
GAMG:  Solving for p, Initial residual = 0.000269365, Final residual = 5.12234e-08, No Iterations 6
time step continuity errors : sum local = 4.1085e-10, global = 1.34558e-10, cumulative = 0.000250255
ExecutionTime = 66.23 s  ClockTime = 67 s

Courant Number mean: 0.935677 max: 3.96609
Time = 994.25

PIMPLE: iteration 1
smoothSolver:  Solving for Ux, Initial residual = 9.97487e-06, Final residual = 9.97487e-06, No Iterations 0
smoothSolver:  Solving for Uy, Initial residual = 6.66657e-05, Final residual = 3.92882e-06, No Iterations 1
GAMG:  Solving for p, Initial residual = 0.000338333, Final residual = 2.27896e-06, No Iterations 3
time step continuity errors : sum local = 1.82783e-08, global = -6.98816e-10, cumulative = 0.000250254
GAMG:  Solving for p, Initial residual = 0.000274264, Final residual = 8.02481e-08, No Iterations 6
time step continuity errors : sum local = 6.43609e-10, global = 1.60968e-10, cumulative = 0.000250254
ExecutionTime = 66.24 s  ClockTime = 67 s

Courant Number mean: 0.935678 max: 3.96609
Time = 994.5

PIMPLE: iteration 1
smoothSolver:  Solving for Ux, Initial residual = 1.00739e-05, Final residual = 6.38322e-07, No Iterations 1
smoothSolver:  Solving for Uy, Initial residual = 6.68623e-05, Final residual = 3.92377e-06, No Iterations 1
GAMG:  Solving for p, Initial residual = 0.000303829, Final residual = 9.01453e-07, No Iterations 4
time step continuity errors : sum local = 7.22876e-09, global = 2.11966e-09, cumulative = 0.000250257
GAMG:  Solving for p, Initial residual = 0.000150163, Final residual = 5.6402e-08, No Iterations 6
time step continuity errors : sum local = 4.52232e-10, global = 7.33785e-11, cumulative = 0.000250257
ExecutionTime = 66.24 s  ClockTime = 67 s

Courant Number mean: 0.935679 max: 3.96609
Time = 994.75

PIMPLE: iteration 1
smoothSolver:  Solving for Ux, Initial residual = 9.90944e-06, Final residual = 9.90944e-06, No Iterations 0
smoothSolver:  Solving for Uy, Initial residual = 6.60677e-05, Final residual = 3.74667e-06, No Iterations 1
GAMG:  Solving for p, Initial residual = 0.0003267, Final residual = 1.50789e-06, No Iterations 3
time step continuity errors : sum local = 1.20905e-08, global = -3.48783e-09, cumulative = 0.000250253
GAMG:  Solving for p, Initial residual = 0.000266556, Final residual = 5.32228e-08, No Iterations 6
time step continuity errors : sum local = 4.2675e-10, global = 1.1092e-10, cumulative = 0.000250253
ExecutionTime = 66.26 s  ClockTime = 67 s

Courant Number mean: 0.93568 max: 3.96609
Time = 995

PIMPLE: iteration 1
smoothSolver:  Solving for Ux, Initial residual = 1.01531e-05, Final residual = 6.48219e-07, No Iterations 1
smoothSolver:  Solving for Uy, Initial residual = 6.66302e-05, Final residual = 3.89887e-06, No Iterations 1
GAMG:  Solving for p, Initial residual = 0.000306353, Final residual = 9.24946e-07, No Iterations 4
time step continuity errors : sum local = 7.4151e-09, global = 1.79486e-09, cumulative = 0.000250255
GAMG:  Solving for p, Initial residual = 0.000146812, Final residual = 5.88644e-08, No Iterations 6
time step continuity errors : sum local = 4.71829e-10, global = 9.18158e-11, cumulative = 0.000250255
ExecutionTime = 66.28 s  ClockTime = 67 s

Courant Number mean: 0.935681 max: 3.96609
Time = 995.25

PIMPLE: iteration 1
smoothSolver:  Solving for Ux, Initial residual = 9.99349e-06, Final residual = 9.99349e-06, No Iterations 0
smoothSolver:  Solving for Uy, Initial residual = 6.58161e-05, Final residual = 3.72545e-06, No Iterations 1
GAMG:  Solving for p, Initial residual = 0.000325872, Final residual = 1.4375e-06, No Iterations 3
time step continuity errors : sum local = 1.15222e-08, global = -3.31019e-09, cumulative = 0.000250252
GAMG:  Solving for p, Initial residual = 0.000262872, Final residual = 4.4023e-08, No Iterations 6
time step continuity errors : sum local = 3.52859e-10, global = 9.67178e-11, cumulative = 0.000250252
ExecutionTime = 66.29 s  ClockTime = 67 s

Courant Number mean: 0.935681 max: 3.96609
Time = 995.5

PIMPLE: iteration 1
smoothSolver:  Solving for Ux, Initial residual = 1.02412e-05, Final residual = 6.46434e-07, No Iterations 1
smoothSolver:  Solving for Uy, Initial residual = 6.63319e-05, Final residual = 3.85949e-06, No Iterations 1
GAMG:  Solving for p, Initial residual = 0.000292762, Final residual = 1.09671e-06, No Iterations 4
time step continuity errors : sum local = 8.78912e-09, global = 1.03769e-09, cumulative = 0.000250253
GAMG:  Solving for p, Initial residual = 0.000145433, Final residual = 5.21867e-08, No Iterations 6
time step continuity errors : sum local = 4.18178e-10, global = 1.24992e-10, cumulative = 0.000250253
ExecutionTime = 66.32 s  ClockTime = 67 s

Courant Number mean: 0.935681 max: 3.96609
Time = 995.75

PIMPLE: iteration 1
smoothSolver:  Solving for Ux, Initial residual = 1.00202e-05, Final residual = 6.22252e-07, No Iterations 1
smoothSolver:  Solving for Uy, Initial residual = 6.54932e-05, Final residual = 3.68203e-06, No Iterations 1
GAMG:  Solving for p, Initial residual = 0.000261216, Final residual = 8.06996e-07, No Iterations 4
time step continuity errors : sum local = 6.466e-09, global = -2.27483e-09, cumulative = 0.000250251
GAMG:  Solving for p, Initial residual = 0.000126089, Final residual = 4.21536e-08, No Iterations 6
time step continuity errors : sum local = 3.37736e-10, global = 1.05443e-10, cumulative = 0.000250251
ExecutionTime = 66.34 s  ClockTime = 67 s

Courant Number mean: 0.93568 max: 3.96609
Time = 996

PIMPLE: iteration 1
smoothSolver:  Solving for Ux, Initial residual = 9.9744e-06, Final residual = 9.9744e-06, No Iterations 0
smoothSolver:  Solving for Uy, Initial residual = 6.51452e-05, Final residual = 3.6487e-06, No Iterations 1
GAMG:  Solving for p, Initial residual = 0.000308171, Final residual = 1.58032e-06, No Iterations 3
time step continuity errors : sum local = 1.26607e-08, global = -2.44836e-09, cumulative = 0.000250248
GAMG:  Solving for p, Initial residual = 0.000250097, Final residual = 3.43688e-08, No Iterations 6
time step continuity errors : sum local = 2.75333e-10, global = 7.91988e-11, cumulative = 0.000250249
ExecutionTime = 66.35 s  ClockTime = 67 s

Courant Number mean: 0.935679 max: 3.96609
Time = 996.25

PIMPLE: iteration 1
smoothSolver:  Solving for Ux, Initial residual = 1.01289e-05, Final residual = 6.25089e-07, No Iterations 1
smoothSolver:  Solving for Uy, Initial residual = 6.60547e-05, Final residual = 3.82e-06, No Iterations 1
GAMG:  Solving for p, Initial residual = 0.000294646, Final residual = 9.24944e-07, No Iterations 4
time step continuity errors : sum local = 7.40901e-09, global = -2.39368e-09, cumulative = 0.000250246
GAMG:  Solving for p, Initial residual = 0.000144921, Final residual = 4.10724e-08, No Iterations 6
time step continuity errors : sum local = 3.28983e-10, global = 1.14715e-10, cumulative = 0.000250246
ExecutionTime = 66.39 s  ClockTime = 67 s

Courant Number mean: 0.935678 max: 3.96609
Time = 996.5

PIMPLE: iteration 1
smoothSolver:  Solving for Ux, Initial residual = 9.92451e-06, Final residual = 9.92451e-06, No Iterations 0
smoothSolver:  Solving for Uy, Initial residual = 6.5576e-05, Final residual = 3.67248e-06, No Iterations 1
GAMG:  Solving for p, Initial residual = 0.000325336, Final residual = 1.67638e-06, No Iterations 3
time step continuity errors : sum local = 1.34265e-08, global = -3.12238e-10, cumulative = 0.000250246
GAMG:  Solving for p, Initial residual = 0.000262136, Final residual = 3.34206e-08, No Iterations 6
time step continuity errors : sum local = 2.6766e-10, global = 9.01321e-11, cumulative = 0.000250246
ExecutionTime = 66.42 s  ClockTime = 67 s

Courant Number mean: 0.935677 max: 3.96609
Time = 996.75

PIMPLE: iteration 1
smoothSolver:  Solving for Ux, Initial residual = 1.01218e-05, Final residual = 6.205e-07, No Iterations 1
smoothSolver:  Solving for Uy, Initial residual = 6.60285e-05, Final residual = 3.82224e-06, No Iterations 1
GAMG:  Solving for p, Initial residual = 0.000298599, Final residual = 2.95447e-06, No Iterations 3
time step continuity errors : sum local = 2.36603e-08, global = -8.47871e-09, cumulative = 0.000250238
GAMG:  Solving for p, Initial residual = 0.000145336, Final residual = 6.15014e-08, No Iterations 6
time step continuity errors : sum local = 4.9252e-10, global = -8.9787e-11, cumulative = 0.000250237
ExecutionTime = 66.43 s  ClockTime = 67 s

Courant Number mean: 0.935675 max: 3.96609
Time = 997

PIMPLE: iteration 1
smoothSolver:  Solving for Ux, Initial residual = 9.8912e-06, Final residual = 9.8912e-06, No Iterations 0
smoothSolver:  Solving for Uy, Initial residual = 6.56402e-05, Final residual = 3.68309e-06, No Iterations 1
GAMG:  Solving for p, Initial residual = 0.000329157, Final residual = 1.7606e-06, No Iterations 3
time step continuity errors : sum local = 1.40984e-08, global = 2.71322e-09, cumulative = 0.00025024
GAMG:  Solving for p, Initial residual = 0.000266185, Final residual = 4.65647e-08, No Iterations 6
time step continuity errors : sum local = 3.7286e-10, global = 6.68578e-11, cumulative = 0.00025024
ExecutionTime = 66.45 s  ClockTime = 67 s

Courant Number mean: 0.935673 max: 3.96609
Time = 997.25

PIMPLE: iteration 1
smoothSolver:  Solving for Ux, Initial residual = 1.00739e-05, Final residual = 6.22243e-07, No Iterations 1
smoothSolver:  Solving for Uy, Initial residual = 6.613e-05, Final residual = 3.86235e-06, No Iterations 1
GAMG:  Solving for p, Initial residual = 0.000300265, Final residual = 8.82102e-07, No Iterations 4
time step continuity errors : sum local = 7.06319e-09, global = -2.68559e-09, cumulative = 0.000250238
GAMG:  Solving for p, Initial residual = 0.000148022, Final residual = 4.8062e-08, No Iterations 6
time step continuity errors : sum local = 3.84876e-10, global = 1.30686e-10, cumulative = 0.000250238
ExecutionTime = 66.46 s  ClockTime = 67 s

Courant Number mean: 0.935671 max: 3.96609
Time = 997.5

PIMPLE: iteration 1
smoothSolver:  Solving for Ux, Initial residual = 9.79999e-06, Final residual = 9.79999e-06, No Iterations 0
smoothSolver:  Solving for Uy, Initial residual = 6.58008e-05, Final residual = 3.75351e-06, No Iterations 1
GAMG:  Solving for p, Initial residual = 0.000335551, Final residual = 1.78564e-06, No Iterations 3
time step continuity errors : sum local = 1.42978e-08, global = 3.49019e-09, cumulative = 0.000250241
GAMG:  Solving for p, Initial residual = 0.00027051, Final residual = 5.37647e-08, No Iterations 6
time step continuity errors : sum local = 4.30483e-10, global = -1.22184e-10, cumulative = 0.000250241
ExecutionTime = 66.48 s  ClockTime = 67 s

Courant Number mean: 0.935669 max: 3.96609
Time = 997.75

PIMPLE: iteration 1
smoothSolver:  Solving for Ux, Initial residual = 9.98741e-06, Final residual = 9.98741e-06, No Iterations 0
smoothSolver:  Solving for Uy, Initial residual = 6.61404e-05, Final residual = 3.93533e-06, No Iterations 1
GAMG:  Solving for p, Initial residual = 0.000343643, Final residual = 2.29756e-06, No Iterations 3
time step continuity errors : sum local = 1.83961e-08, global = -1.91231e-10, cumulative = 0.000250241
GAMG:  Solving for p, Initial residual = 0.000277864, Final residual = 8.5469e-08, No Iterations 6
time step continuity errors : sum local = 6.84339e-10, global = -1.77787e-10, cumulative = 0.000250241
ExecutionTime = 66.5 s  ClockTime = 67 s

Courant Number mean: 0.935667 max: 3.96609
Time = 998

PIMPLE: iteration 1
smoothSolver:  Solving for Ux, Initial residual = 1.0065e-05, Final residual = 6.41834e-07, No Iterations 1
smoothSolver:  Solving for Uy, Initial residual = 6.6385e-05, Final residual = 3.95121e-06, No Iterations 1
GAMG:  Solving for p, Initial residual = 0.000311379, Final residual = 8.96699e-07, No Iterations 4
time step continuity errors : sum local = 7.18062e-09, global = -2.356e-09, cumulative = 0.000250238
GAMG:  Solving for p, Initial residual = 0.000152102, Final residual = 6.06764e-08, No Iterations 6
time step continuity errors : sum local = 4.85941e-10, global = 3.44646e-11, cumulative = 0.000250238
ExecutionTime = 66.5 s  ClockTime = 67 s

Courant Number mean: 0.935665 max: 3.96609
Time = 998.25

PIMPLE: iteration 1
smoothSolver:  Solving for Ux, Initial residual = 9.89415e-06, Final residual = 9.89415e-06, No Iterations 0
smoothSolver:  Solving for Uy, Initial residual = 6.567e-05, Final residual = 3.78731e-06, No Iterations 1
GAMG:  Solving for p, Initial residual = 0.000334201, Final residual = 1.5937e-06, No Iterations 3
time step continuity errors : sum local = 1.27629e-08, global = 3.76071e-09, cumulative = 0.000250242
GAMG:  Solving for p, Initial residual = 0.000269977, Final residual = 5.82805e-08, No Iterations 6
time step continuity errors : sum local = 4.66726e-10, global = -1.31562e-10, cumulative = 0.000250242
ExecutionTime = 66.51 s  ClockTime = 67 s

Courant Number mean: 0.935664 max: 3.96609
Time = 998.5

PIMPLE: iteration 1
smoothSolver:  Solving for Ux, Initial residual = 1.01377e-05, Final residual = 6.54994e-07, No Iterations 1
smoothSolver:  Solving for Uy, Initial residual = 6.62006e-05, Final residual = 3.95236e-06, No Iterations 1
GAMG:  Solving for p, Initial residual = 0.000301526, Final residual = 8.76459e-07, No Iterations 4
time step continuity errors : sum local = 7.01994e-09, global = -2.07036e-09, cumulative = 0.00025024
GAMG:  Solving for p, Initial residual = 0.000147622, Final residual = 5.36146e-08, No Iterations 6
time step continuity errors : sum local = 4.29491e-10, global = 9.15735e-12, cumulative = 0.00025024
ExecutionTime = 66.52 s  ClockTime = 67 s

Courant Number mean: 0.935663 max: 3.96609
Time = 998.75

PIMPLE: iteration 1
smoothSolver:  Solving for Ux, Initial residual = 9.92173e-06, Final residual = 9.92173e-06, No Iterations 0
smoothSolver:  Solving for Uy, Initial residual = 6.54286e-05, Final residual = 3.77588e-06, No Iterations 1
GAMG:  Solving for p, Initial residual = 0.000331866, Final residual = 1.51718e-06, No Iterations 3
time step continuity errors : sum local = 1.21533e-08, global = 3.4984e-09, cumulative = 0.000250243
GAMG:  Solving for p, Initial residual = 0.000265314, Final residual = 5.23196e-08, No Iterations 6
time step continuity errors : sum local = 4.191e-10, global = -1.09422e-10, cumulative = 0.000250243
ExecutionTime = 66.54 s  ClockTime = 67 s

Courant Number mean: 0.935662 max: 3.96609
Time = 999

PIMPLE: iteration 1
smoothSolver:  Solving for Ux, Initial residual = 1.01191e-05, Final residual = 6.54458e-07, No Iterations 1
smoothSolver:  Solving for Uy, Initial residual = 6.59372e-05, Final residual = 3.91439e-06, No Iterations 1
GAMG:  Solving for p, Initial residual = 0.000294067, Final residual = 9.88424e-07, No Iterations 4
time step continuity errors : sum local = 7.91897e-09, global = -1.71309e-09, cumulative = 0.000250242
GAMG:  Solving for p, Initial residual = 0.000145752, Final residual = 5.69503e-08, No Iterations 6
time step continuity errors : sum local = 4.56332e-10, global = -1.38852e-10, cumulative = 0.000250241
ExecutionTime = 66.55 s  ClockTime = 67 s

Courant Number mean: 0.935662 max: 3.96609
Time = 999.25

PIMPLE: iteration 1
smoothSolver:  Solving for Ux, Initial residual = 9.89777e-06, Final residual = 9.89777e-06, No Iterations 0
smoothSolver:  Solving for Uy, Initial residual = 6.50917e-05, Final residual = 3.72261e-06, No Iterations 1
GAMG:  Solving for p, Initial residual = 0.000323162, Final residual = 1.44205e-06, No Iterations 3
time step continuity errors : sum local = 1.15551e-08, global = 3.32107e-09, cumulative = 0.000250245
GAMG:  Solving for p, Initial residual = 0.000260028, Final residual = 4.2125e-08, No Iterations 6
time step continuity errors : sum local = 3.37554e-10, global = -9.65016e-11, cumulative = 0.000250245
ExecutionTime = 66.55 s  ClockTime = 67 s

Courant Number mean: 0.935662 max: 3.96609
Time = 999.5

PIMPLE: iteration 1
smoothSolver:  Solving for Ux, Initial residual = 1.0113e-05, Final residual = 6.46922e-07, No Iterations 1
smoothSolver:  Solving for Uy, Initial residual = 6.54406e-05, Final residual = 3.85465e-06, No Iterations 1
GAMG:  Solving for p, Initial residual = 0.000289906, Final residual = 1.16789e-06, No Iterations 4
time step continuity errors : sum local = 9.35992e-09, global = 2.92681e-10, cumulative = 0.000250245
GAMG:  Solving for p, Initial residual = 0.000144882, Final residual = 5.00564e-08, No Iterations 6
time step continuity errors : sum local = 4.01215e-10, global = -1.10296e-10, cumulative = 0.000250245
ExecutionTime = 66.57 s  ClockTime = 67 s

Courant Number mean: 0.935662 max: 3.96609
Time = 999.75

PIMPLE: iteration 1
smoothSolver:  Solving for Ux, Initial residual = 9.89057e-06, Final residual = 9.89057e-06, No Iterations 0
smoothSolver:  Solving for Uy, Initial residual = 6.4578e-05, Final residual = 3.67249e-06, No Iterations 1
GAMG:  Solving for p, Initial residual = 0.000321456, Final residual = 1.52669e-06, No Iterations 3
time step continuity errors : sum local = 1.22375e-08, global = 2.94661e-09, cumulative = 0.000250248
GAMG:  Solving for p, Initial residual = 0.000257709, Final residual = 9.43418e-08, No Iterations 5
time step continuity errors : sum local = 7.56247e-10, global = -2.36851e-10, cumulative = 0.000250248
ExecutionTime = 66.59 s  ClockTime = 67 s

Courant Number mean: 0.935663 max: 3.96609
Time = 1000

PIMPLE: iteration 1
smoothSolver:  Solving for Ux, Initial residual = 1.01034e-05, Final residual = 6.37143e-07, No Iterations 1
smoothSolver:  Solving for Uy, Initial residual = 6.51508e-05, Final residual = 3.81243e-06, No Iterations 1
GAMG:  Solving for p, Initial residual = 0.000290832, Final residual = 9.76114e-07, No Iterations 4
time step continuity errors : sum local = 7.82555e-09, global = 2.25804e-09, cumulative = 0.00025025
GAMG:  Solving for p, Initial residual = 0.000144926, Final residual = 4.13269e-08, No Iterations 6
time step continuity errors : sum local = 3.3134e-10, global = -1.10562e-10, cumulative = 0.00025025
ExecutionTime = 66.62 s  ClockTime = 67 s

End

