/*---------------------------------------------------------------------------*\
| =========                 |                                                 |
| \\      /  F ield         | OpenFOAM: The Open Source CFD Toolbox           |
|  \\    /   O peration     | Version:  v1912                                 |
|   \\  /    A nd           | Website:  www.openfoam.com                      |
|    \\/     M anipulation  |                                                 |
\*---------------------------------------------------------------------------*/
Build  : _f3950763fe-20191219 OPENFOAM=1912
Arch   : "LSB;label=32;scalar=64"
Exec   : pimpleFoam
Date   : Jun 06 2020
Time   : 13:40:06
Host   : DESKTOP-7S8DQ3L
PID    : 6606
I/O    : uncollated
Case   : /home/logankp/OpenFOAM/logankp-v1912/run/CFD/Midterm_Case/Graded_Mesh/TimeAccurate/Turbulent
nProcs : 1
trapFpe: Floating point exception trapping enabled (FOAM_SIGFPE).
fileModificationChecking : Monitoring run-time modified files using timeStampMaster (fileModificationSkew 10)
allowSystemOperations : Allowing user-supplied system call operations

// * * * * * * * * * * * * * * * * * * * * * * * * * * * * * * * * * * * * * //
Create time

Create mesh for time = 0


PIMPLE: Operating solver in PISO mode

Reading field p

Reading field U

Reading/calculating face flux field phi

Selecting incompressible transport model Newtonian
Selecting turbulence model type RAS
Selecting RAS turbulence model kEpsilon
RAS
{
    RASModel        kEpsilon;
    turbulence      on;
    printCoeffs     on;
    Cmu             0.09;
    C1              1.44;
    C2              1.92;
    C3              0;
    sigmak          1;
    sigmaEps        1.3;
}

No MRF models present

No finite volume options present
Courant Number mean: 0.00486529 max: 1.12027

Starting time loop

Courant Number mean: 0.00486529 max: 1.12027
Time = 0.25

PIMPLE: iteration 1
smoothSolver:  Solving for Ux, Initial residual = 1, Final residual = 6.17926e-07, No Iterations 3
smoothSolver:  Solving for Uy, Initial residual = 1, Final residual = 6.13809e-07, No Iterations 3
GAMG:  Solving for p, Initial residual = 1, Final residual = 0.00991371, No Iterations 6
time step continuity errors : sum local = 0.000137499, global = -4.33762e-05, cumulative = -4.33762e-05
GAMG:  Solving for p, Initial residual = 0.0254151, Final residual = 4.07902e-08, No Iterations 11
time step continuity errors : sum local = 4.78004e-08, global = 1.23465e-08, cumulative = -4.33639e-05
smoothSolver:  Solving for epsilon, Initial residual = 0.96918, Final residual = 2.21912e-08, No Iterations 2
smoothSolver:  Solving for k, Initial residual = 1, Final residual = 2.63974e-06, No Iterations 3
ExecutionTime = 0.15 s  ClockTime = 0 s

Courant Number mean: 0.793152 max: 4.14282
Time = 0.5

PIMPLE: iteration 1
smoothSolver:  Solving for Ux, Initial residual = 0.872131, Final residual = 5.79545e-06, No Iterations 5
smoothSolver:  Solving for Uy, Initial residual = 0.375693, Final residual = 8.20648e-06, No Iterations 5
GAMG:  Solving for p, Initial residual = 0.0591693, Final residual = 0.000294336, No Iterations 6
time step continuity errors : sum local = 0.000106072, global = 2.87349e-05, cumulative = -1.4629e-05
GAMG:  Solving for p, Initial residual = 0.124659, Final residual = 7.25315e-08, No Iterations 14
time step continuity errors : sum local = 2.68961e-08, global = -1.25604e-08, cumulative = -1.46416e-05
smoothSolver:  Solving for epsilon, Initial residual = 0.611381, Final residual = 1.96192e-06, No Iterations 3
smoothSolver:  Solving for k, Initial residual = 0.731461, Final residual = 5.02001e-06, No Iterations 4
ExecutionTime = 0.16 s  ClockTime = 0 s

Courant Number mean: 0.793512 max: 3.30632
Time = 0.75

PIMPLE: iteration 1
smoothSolver:  Solving for Ux, Initial residual = 0.071437, Final residual = 9.64749e-06, No Iterations 4
smoothSolver:  Solving for Uy, Initial residual = 0.824223, Final residual = 7.41283e-06, No Iterations 6
GAMG:  Solving for p, Initial residual = 0.832695, Final residual = 0.00803173, No Iterations 3
time step continuity errors : sum local = 0.000643935, global = 0.000101682, cumulative = 8.70401e-05
GAMG:  Solving for p, Initial residual = 0.726554, Final residual = 7.29692e-08, No Iterations 14
time step continuity errors : sum local = 3.9926e-09, global = -1.60336e-09, cumulative = 8.70385e-05
smoothSolver:  Solving for epsilon, Initial residual = 0.369264, Final residual = 2.7481e-06, No Iterations 3
smoothSolver:  Solving for k, Initial residual = 0.514258, Final residual = 8.55303e-06, No Iterations 4
ExecutionTime = 0.2 s  ClockTime = 0 s

Courant Number mean: 0.79828 max: 4.58281
Time = 1

PIMPLE: iteration 1
smoothSolver:  Solving for Ux, Initial residual = 0.0488244, Final residual = 4.80829e-06, No Iterations 4
smoothSolver:  Solving for Uy, Initial residual = 0.184092, Final residual = 4.60039e-06, No Iterations 5
GAMG:  Solving for p, Initial residual = 0.381541, Final residual = 0.00151733, No Iterations 4
time step continuity errors : sum local = 5.41996e-05, global = 8.6192e-06, cumulative = 9.56577e-05
GAMG:  Solving for p, Initial residual = 0.291487, Final residual = 6.03516e-08, No Iterations 14
time step continuity errors : sum local = 1.34415e-09, global = -1.67163e-10, cumulative = 9.56575e-05
smoothSolver:  Solving for epsilon, Initial residual = 0.26011, Final residual = 4.86043e-06, No Iterations 3
smoothSolver:  Solving for k, Initial residual = 0.398428, Final residual = 8.6933e-06, No Iterations 4
ExecutionTime = 0.24 s  ClockTime = 0 s

Courant Number mean: 0.799643 max: 3.02082
Time = 1.25

PIMPLE: iteration 1
smoothSolver:  Solving for Ux, Initial residual = 0.0265694, Final residual = 3.29311e-06, No Iterations 4
smoothSolver:  Solving for Uy, Initial residual = 0.0642868, Final residual = 1.80026e-06, No Iterations 5
GAMG:  Solving for p, Initial residual = 0.402832, Final residual = 0.00383177, No Iterations 3
time step continuity errors : sum local = 4.62676e-05, global = -1.74434e-05, cumulative = 7.82141e-05
GAMG:  Solving for p, Initial residual = 0.128477, Final residual = 4.2766e-08, No Iterations 13
time step continuity errors : sum local = 7.90564e-10, global = 2.26132e-10, cumulative = 7.82144e-05
smoothSolver:  Solving for epsilon, Initial residual = 0.293825, Final residual = 2.57883e-06, No Iterations 3
smoothSolver:  Solving for k, Initial residual = 0.313894, Final residual = 8.30465e-06, No Iterations 4
ExecutionTime = 0.25 s  ClockTime = 0 s

Courant Number mean: 0.801268 max: 3.07909
Time = 1.5

PIMPLE: iteration 1
smoothSolver:  Solving for Ux, Initial residual = 0.0147442, Final residual = 2.09809e-06, No Iterations 4
smoothSolver:  Solving for Uy, Initial residual = 0.045713, Final residual = 2.46816e-06, No Iterations 4
GAMG:  Solving for p, Initial residual = 0.140638, Final residual = 0.000981707, No Iterations 3
time step continuity errors : sum local = 1.46431e-05, global = 3.49607e-06, cumulative = 8.17104e-05
GAMG:  Solving for p, Initial residual = 0.0751672, Final residual = 7.14624e-08, No Iterations 12
time step continuity errors : sum local = 9.10728e-10, global = 4.09974e-10, cumulative = 8.17109e-05
smoothSolver:  Solving for epsilon, Initial residual = 0.202978, Final residual = 3.53377e-06, No Iterations 3
smoothSolver:  Solving for k, Initial residual = 0.26027, Final residual = 6.36819e-06, No Iterations 4
ExecutionTime = 0.28 s  ClockTime = 0 s

Courant Number mean: 0.802502 max: 3.03915
Time = 1.75

PIMPLE: iteration 1
smoothSolver:  Solving for Ux, Initial residual = 0.0122318, Final residual = 7.87811e-06, No Iterations 3
smoothSolver:  Solving for Uy, Initial residual = 0.0309811, Final residual = 3.66546e-06, No Iterations 3
GAMG:  Solving for p, Initial residual = 0.0731503, Final residual = 0.000296921, No Iterations 4
time step continuity errors : sum local = 3.75413e-06, global = -6.57991e-07, cumulative = 8.10529e-05
GAMG:  Solving for p, Initial residual = 0.0297913, Final residual = 4.90406e-08, No Iterations 12
time step continuity errors : sum local = 6.97443e-10, global = 1.22715e-10, cumulative = 8.1053e-05
smoothSolver:  Solving for epsilon, Initial residual = 0.316768, Final residual = 1.42181e-06, No Iterations 3
smoothSolver:  Solving for k, Initial residual = 0.219749, Final residual = 5.70781e-06, No Iterations 4
ExecutionTime = 0.31 s  ClockTime = 0 s

Courant Number mean: 0.80401 max: 3.04927
Time = 2

PIMPLE: iteration 1
smoothSolver:  Solving for Ux, Initial residual = 0.0111814, Final residual = 5.32218e-06, No Iterations 3
smoothSolver:  Solving for Uy, Initial residual = 0.0264144, Final residual = 3.30407e-06, No Iterations 3
GAMG:  Solving for p, Initial residual = 0.0470846, Final residual = 0.000314107, No Iterations 3
time step continuity errors : sum local = 4.1962e-06, global = -5.15158e-07, cumulative = 8.05378e-05
GAMG:  Solving for p, Initial residual = 0.0210403, Final residual = 4.60138e-08, No Iterations 11
time step continuity errors : sum local = 6.13424e-10, global = 2.79322e-10, cumulative = 8.05381e-05
smoothSolver:  Solving for epsilon, Initial residual = 0.182037, Final residual = 2.07817e-06, No Iterations 3
smoothSolver:  Solving for k, Initial residual = 0.188109, Final residual = 4.0583e-06, No Iterations 4
ExecutionTime = 0.33 s  ClockTime = 0 s

Courant Number mean: 0.80547 max: 3.05278
Time = 2.25

PIMPLE: iteration 1
smoothSolver:  Solving for Ux, Initial residual = 0.0107339, Final residual = 3.89912e-06, No Iterations 3
smoothSolver:  Solving for Uy, Initial residual = 0.0230915, Final residual = 2.72843e-06, No Iterations 3
GAMG:  Solving for p, Initial residual = 0.0347832, Final residual = 0.00026343, No Iterations 3
time step continuity errors : sum local = 3.51482e-06, global = -6.17018e-07, cumulative = 7.99211e-05
GAMG:  Solving for p, Initial residual = 0.0150325, Final residual = 6.33896e-08, No Iterations 10
time step continuity errors : sum local = 8.47412e-10, global = -1.97716e-10, cumulative = 7.99209e-05
smoothSolver:  Solving for epsilon, Initial residual = 0.377807, Final residual = 7.89307e-06, No Iterations 2
smoothSolver:  Solving for k, Initial residual = 0.166302, Final residual = 3.80839e-06, No Iterations 4
ExecutionTime = 0.36 s  ClockTime = 0 s

Courant Number mean: 0.806884 max: 3.05477
Time = 2.5

PIMPLE: iteration 1
smoothSolver:  Solving for Ux, Initial residual = 0.0105566, Final residual = 3.03109e-06, No Iterations 3
smoothSolver:  Solving for Uy, Initial residual = 0.0212158, Final residual = 2.37838e-06, No Iterations 3
GAMG:  Solving for p, Initial residual = 0.0286916, Final residual = 0.000216393, No Iterations 3
time step continuity errors : sum local = 2.90981e-06, global = 4.85303e-07, cumulative = 8.04062e-05
GAMG:  Solving for p, Initial residual = 0.0127054, Final residual = 7.71489e-08, No Iterations 10
time step continuity errors : sum local = 1.03667e-09, global = 3.347e-10, cumulative = 8.04065e-05
smoothSolver:  Solving for epsilon, Initial residual = 0.16713, Final residual = 1.30402e-06, No Iterations 3
smoothSolver:  Solving for k, Initial residual = 0.145843, Final residual = 2.56969e-06, No Iterations 4
ExecutionTime = 0.38 s  ClockTime = 0 s

Courant Number mean: 0.808277 max: 3.05719
Time = 2.75

PIMPLE: iteration 1
smoothSolver:  Solving for Ux, Initial residual = 0.0104116, Final residual = 2.53737e-06, No Iterations 3
smoothSolver:  Solving for Uy, Initial residual = 0.0198985, Final residual = 1.84765e-06, No Iterations 3
GAMG:  Solving for p, Initial residual = 0.0268714, Final residual = 0.000224192, No Iterations 3
time step continuity errors : sum local = 3.0294e-06, global = -1.67063e-07, cumulative = 8.02395e-05
GAMG:  Solving for p, Initial residual = 0.0124792, Final residual = 5.45329e-08, No Iterations 10
time step continuity errors : sum local = 7.38767e-10, global = 1.76197e-10, cumulative = 8.02396e-05
smoothSolver:  Solving for epsilon, Initial residual = 0.432911, Final residual = 4.17943e-06, No Iterations 2
smoothSolver:  Solving for k, Initial residual = 0.132719, Final residual = 2.58285e-06, No Iterations 4
ExecutionTime = 0.41 s  ClockTime = 1 s

Courant Number mean: 0.809842 max: 3.0614
Time = 3

PIMPLE: iteration 1
smoothSolver:  Solving for Ux, Initial residual = 0.0103563, Final residual = 2.07216e-06, No Iterations 3
smoothSolver:  Solving for Uy, Initial residual = 0.0189541, Final residual = 1.46511e-06, No Iterations 3
GAMG:  Solving for p, Initial residual = 0.0275931, Final residual = 0.000273931, No Iterations 3
time step continuity errors : sum local = 3.71624e-06, global = 2.14173e-07, cumulative = 8.04538e-05
GAMG:  Solving for p, Initial residual = 0.01216, Final residual = 7.60648e-08, No Iterations 10
time step continuity errors : sum local = 1.0327e-09, global = 3.3304e-10, cumulative = 8.04541e-05
smoothSolver:  Solving for epsilon, Initial residual = 0.154302, Final residual = 9.47502e-07, No Iterations 3
smoothSolver:  Solving for k, Initial residual = 0.118379, Final residual = 1.70885e-06, No Iterations 4
ExecutionTime = 0.42 s  ClockTime = 1 s

Courant Number mean: 0.811522 max: 3.06529
Time = 3.25

PIMPLE: iteration 1
smoothSolver:  Solving for Ux, Initial residual = 0.0103275, Final residual = 1.76004e-06, No Iterations 3
smoothSolver:  Solving for Uy, Initial residual = 0.018401, Final residual = 1.2463e-06, No Iterations 3
GAMG:  Solving for p, Initial residual = 0.0265495, Final residual = 8.83843e-05, No Iterations 4
time step continuity errors : sum local = 1.20332e-06, global = 1.84382e-08, cumulative = 8.04726e-05
GAMG:  Solving for p, Initial residual = 0.0121559, Final residual = 5.7648e-08, No Iterations 10
time step continuity errors : sum local = 7.86946e-10, global = 2.26099e-10, cumulative = 8.04728e-05
smoothSolver:  Solving for epsilon, Initial residual = 0.452277, Final residual = 2.44487e-06, No Iterations 2
smoothSolver:  Solving for k, Initial residual = 0.110475, Final residual = 1.83629e-06, No Iterations 4
ExecutionTime = 0.44 s  ClockTime = 1 s

Courant Number mean: 0.813253 max: 3.06875
Time = 3.5

PIMPLE: iteration 1
smoothSolver:  Solving for Ux, Initial residual = 0.0103244, Final residual = 1.48965e-06, No Iterations 3
smoothSolver:  Solving for Uy, Initial residual = 0.0180013, Final residual = 1.03606e-06, No Iterations 3
GAMG:  Solving for p, Initial residual = 0.0265285, Final residual = 9.27377e-05, No Iterations 4
time step continuity errors : sum local = 1.26938e-06, global = 8.32728e-08, cumulative = 8.05561e-05
GAMG:  Solving for p, Initial residual = 0.0122585, Final residual = 6.59356e-08, No Iterations 10
time step continuity errors : sum local = 9.0546e-10, global = 2.48132e-10, cumulative = 8.05563e-05
smoothSolver:  Solving for epsilon, Initial residual = 0.142765, Final residual = 7.32091e-07, No Iterations 3
smoothSolver:  Solving for k, Initial residual = 0.0993862, Final residual = 8.12224e-06, No Iterations 3
ExecutionTime = 0.47 s  ClockTime = 1 s

Courant Number mean: 0.815003 max: 3.07181
Time = 3.75

PIMPLE: iteration 1
smoothSolver:  Solving for Ux, Initial residual = 0.0103237, Final residual = 1.28301e-06, No Iterations 3
smoothSolver:  Solving for Uy, Initial residual = 0.0178343, Final residual = 8.95048e-07, No Iterations 3
GAMG:  Solving for p, Initial residual = 0.025078, Final residual = 9.513e-05, No Iterations 4
time step continuity errors : sum local = 1.30984e-06, global = 5.5599e-08, cumulative = 8.06119e-05
GAMG:  Solving for p, Initial residual = 0.0120851, Final residual = 7.30612e-08, No Iterations 10
time step continuity errors : sum local = 1.00985e-09, global = 2.46172e-10, cumulative = 8.06122e-05
smoothSolver:  Solving for epsilon, Initial residual = 0.437668, Final residual = 1.56331e-06, No Iterations 2
smoothSolver:  Solving for k, Initial residual = 0.0945849, Final residual = 9.33319e-06, No Iterations 3
ExecutionTime = 0.49 s  ClockTime = 1 s

Courant Number mean: 0.816772 max: 3.07458
Time = 4

PIMPLE: iteration 1
smoothSolver:  Solving for Ux, Initial residual = 0.0103254, Final residual = 1.11799e-06, No Iterations 3
smoothSolver:  Solving for Uy, Initial residual = 0.0177648, Final residual = 7.73242e-07, No Iterations 3
GAMG:  Solving for p, Initial residual = 0.0261848, Final residual = 9.52089e-05, No Iterations 4
time step continuity errors : sum local = 1.31963e-06, global = 6.53663e-08, cumulative = 8.06775e-05
GAMG:  Solving for p, Initial residual = 0.0122802, Final residual = 7.96367e-08, No Iterations 10
time step continuity errors : sum local = 1.10916e-09, global = 2.42395e-10, cumulative = 8.06778e-05
smoothSolver:  Solving for epsilon, Initial residual = 0.132386, Final residual = 5.61716e-07, No Iterations 3
smoothSolver:  Solving for k, Initial residual = 0.0850529, Final residual = 6.02512e-06, No Iterations 3
ExecutionTime = 0.5 s  ClockTime = 1 s

Courant Number mean: 0.818663 max: 3.07695
Time = 4.25

PIMPLE: iteration 1
smoothSolver:  Solving for Ux, Initial residual = 0.0103252, Final residual = 9.78626e-07, No Iterations 3
smoothSolver:  Solving for Uy, Initial residual = 0.0176989, Final residual = 6.7778e-07, No Iterations 3
GAMG:  Solving for p, Initial residual = 0.0263977, Final residual = 0.00010038, No Iterations 4
time step continuity errors : sum local = 1.40307e-06, global = 5.54026e-08, cumulative = 8.07332e-05
GAMG:  Solving for p, Initial residual = 0.0123397, Final residual = 8.25096e-08, No Iterations 10
time step continuity errors : sum local = 1.1581e-09, global = 2.61405e-10, cumulative = 8.07334e-05
smoothSolver:  Solving for epsilon, Initial residual = 0.397249, Final residual = 1.04841e-06, No Iterations 2
smoothSolver:  Solving for k, Initial residual = 0.0827242, Final residual = 7.28163e-06, No Iterations 3
ExecutionTime = 0.52 s  ClockTime = 1 s

Courant Number mean: 0.820591 max: 3.07909
Time = 4.5

PIMPLE: iteration 1
smoothSolver:  Solving for Ux, Initial residual = 0.0103446, Final residual = 8.74986e-07, No Iterations 3
smoothSolver:  Solving for Uy, Initial residual = 0.0177399, Final residual = 6.02509e-07, No Iterations 3
GAMG:  Solving for p, Initial residual = 0.026752, Final residual = 0.000106926, No Iterations 4
time step continuity errors : sum local = 1.50288e-06, global = 5.34208e-08, cumulative = 8.07869e-05
GAMG:  Solving for p, Initial residual = 0.0123244, Final residual = 8.48495e-08, No Iterations 10
time step continuity errors : sum local = 1.19645e-09, global = 2.83902e-10, cumulative = 8.07872e-05
smoothSolver:  Solving for epsilon, Initial residual = 0.122975, Final residual = 4.27549e-07, No Iterations 3
smoothSolver:  Solving for k, Initial residual = 0.0741246, Final residual = 4.61236e-06, No Iterations 3
ExecutionTime = 0.55 s  ClockTime = 1 s

Courant Number mean: 0.822688 max: 3.08091
Time = 4.75

PIMPLE: iteration 1
smoothSolver:  Solving for Ux, Initial residual = 0.0103574, Final residual = 7.80957e-07, No Iterations 3
smoothSolver:  Solving for Uy, Initial residual = 0.017824, Final residual = 9.67581e-06, No Iterations 2
GAMG:  Solving for p, Initial residual = 0.0284256, Final residual = 0.000114508, No Iterations 4
time step continuity errors : sum local = 1.62105e-06, global = 5.11885e-08, cumulative = 8.08383e-05
GAMG:  Solving for p, Initial residual = 0.0126064, Final residual = 8.85413e-08, No Iterations 10
time step continuity errors : sum local = 1.26021e-09, global = 3.06068e-10, cumulative = 8.08386e-05
smoothSolver:  Solving for epsilon, Initial residual = 0.346108, Final residual = 7.26098e-07, No Iterations 2
smoothSolver:  Solving for k, Initial residual = 0.0735325, Final residual = 5.81967e-06, No Iterations 3
ExecutionTime = 0.57 s  ClockTime = 1 s

Courant Number mean: 0.824874 max: 3.08251
Time = 5

PIMPLE: iteration 1
smoothSolver:  Solving for Ux, Initial residual = 0.010378, Final residual = 7.16989e-07, No Iterations 3
smoothSolver:  Solving for Uy, Initial residual = 0.0179407, Final residual = 9.57047e-06, No Iterations 2
GAMG:  Solving for p, Initial residual = 0.0274294, Final residual = 0.000119706, No Iterations 4
time step continuity errors : sum local = 1.70819e-06, global = 3.76768e-08, cumulative = 8.08763e-05
GAMG:  Solving for p, Initial residual = 0.0119752, Final residual = 8.78531e-08, No Iterations 10
time step continuity errors : sum local = 1.26023e-09, global = 3.05452e-10, cumulative = 8.08766e-05
smoothSolver:  Solving for epsilon, Initial residual = 0.114399, Final residual = 8.7835e-06, No Iterations 2
smoothSolver:  Solving for k, Initial residual = 0.0656407, Final residual = 3.63485e-06, No Iterations 3
ExecutionTime = 0.58 s  ClockTime = 1 s

Courant Number mean: 0.827211 max: 3.08381
Time = 5.25

PIMPLE: iteration 1
smoothSolver:  Solving for Ux, Initial residual = 0.0104515, Final residual = 6.55514e-07, No Iterations 3
smoothSolver:  Solving for Uy, Initial residual = 0.0180231, Final residual = 9.36037e-06, No Iterations 2
GAMG:  Solving for p, Initial residual = 0.029551, Final residual = 0.000123162, No Iterations 4
time step continuity errors : sum local = 1.77555e-06, global = 5.09763e-08, cumulative = 8.09276e-05
GAMG:  Solving for p, Initial residual = 0.0122024, Final residual = 8.88393e-08, No Iterations 10
time step continuity errors : sum local = 1.28865e-09, global = 3.14607e-10, cumulative = 8.09279e-05
smoothSolver:  Solving for epsilon, Initial residual = 0.295825, Final residual = 5.23524e-07, No Iterations 2
smoothSolver:  Solving for k, Initial residual = 0.0659429, Final residual = 4.7131e-06, No Iterations 3
ExecutionTime = 0.6 s  ClockTime = 1 s

Courant Number mean: 0.829674 max: 3.08493
Time = 5.5

PIMPLE: iteration 1
smoothSolver:  Solving for Ux, Initial residual = 0.0105371, Final residual = 6.21066e-07, No Iterations 3
smoothSolver:  Solving for Uy, Initial residual = 0.0181495, Final residual = 9.42996e-06, No Iterations 2
GAMG:  Solving for p, Initial residual = 0.031849, Final residual = 0.000133568, No Iterations 4
time step continuity errors : sum local = 1.94971e-06, global = 3.67735e-08, cumulative = 8.09647e-05
GAMG:  Solving for p, Initial residual = 0.0125516, Final residual = 9.09532e-08, No Iterations 10
time step continuity errors : sum local = 1.33948e-09, global = 3.24426e-10, cumulative = 8.0965e-05
smoothSolver:  Solving for epsilon, Initial residual = 0.106549, Final residual = 7.25285e-06, No Iterations 2
smoothSolver:  Solving for k, Initial residual = 0.0589515, Final residual = 2.92469e-06, No Iterations 3
ExecutionTime = 0.61 s  ClockTime = 1 s

Courant Number mean: 0.832192 max: 3.08584
Time = 5.75

PIMPLE: iteration 1
smoothSolver:  Solving for Ux, Initial residual = 0.0105915, Final residual = 5.85029e-07, No Iterations 3
smoothSolver:  Solving for Uy, Initial residual = 0.0184322, Final residual = 9.59347e-06, No Iterations 2
GAMG:  Solving for p, Initial residual = 0.0310617, Final residual = 0.000135628, No Iterations 4
time step continuity errors : sum local = 2.00666e-06, global = 4.34641e-08, cumulative = 8.10085e-05
GAMG:  Solving for p, Initial residual = 0.0119995, Final residual = 8.60654e-08, No Iterations 10
time step continuity errors : sum local = 1.27993e-09, global = 3.1177e-10, cumulative = 8.10088e-05
smoothSolver:  Solving for epsilon, Initial residual = 0.251628, Final residual = 3.89548e-07, No Iterations 2
smoothSolver:  Solving for k, Initial residual = 0.0596826, Final residual = 3.87796e-06, No Iterations 3
ExecutionTime = 0.64 s  ClockTime = 1 s

Courant Number mean: 0.834646 max: 3.08655
Time = 6

PIMPLE: iteration 1
smoothSolver:  Solving for Ux, Initial residual = 0.0106919, Final residual = 5.74654e-07, No Iterations 3
smoothSolver:  Solving for Uy, Initial residual = 0.0185878, Final residual = 9.96439e-06, No Iterations 2
GAMG:  Solving for p, Initial residual = 0.0328638, Final residual = 0.00014024, No Iterations 4
time step continuity errors : sum local = 2.10106e-06, global = 3.58076e-08, cumulative = 8.10446e-05
GAMG:  Solving for p, Initial residual = 0.0118908, Final residual = 8.27633e-08, No Iterations 10
time step continuity errors : sum local = 1.24975e-09, global = 3.01076e-10, cumulative = 8.10449e-05
smoothSolver:  Solving for epsilon, Initial residual = 0.0993484, Final residual = 6.04382e-06, No Iterations 2
smoothSolver:  Solving for k, Initial residual = 0.0535774, Final residual = 2.40632e-06, No Iterations 3
ExecutionTime = 0.65 s  ClockTime = 1 s

Courant Number mean: 0.837347 max: 3.08706
Time = 6.25

PIMPLE: iteration 1
smoothSolver:  Solving for Ux, Initial residual = 0.0107856, Final residual = 5.66652e-07, No Iterations 3
smoothSolver:  Solving for Uy, Initial residual = 0.0187937, Final residual = 3.97367e-07, No Iterations 3
GAMG:  Solving for p, Initial residual = 0.0354504, Final residual = 0.000140019, No Iterations 4
time step continuity errors : sum local = 2.13525e-06, global = 7.13522e-08, cumulative = 8.11163e-05
GAMG:  Solving for p, Initial residual = 0.0124527, Final residual = 8.49301e-08, No Iterations 10
time step continuity errors : sum local = 1.30807e-09, global = 3.33037e-10, cumulative = 8.11166e-05
smoothSolver:  Solving for epsilon, Initial residual = 0.21512, Final residual = 3.03167e-07, No Iterations 2
smoothSolver:  Solving for k, Initial residual = 0.054438, Final residual = 3.23901e-06, No Iterations 3
ExecutionTime = 0.67 s  ClockTime = 1 s

Courant Number mean: 0.840225 max: 3.08746
Time = 6.5

PIMPLE: iteration 1
smoothSolver:  Solving for Ux, Initial residual = 0.0108002, Final residual = 5.79997e-07, No Iterations 3
smoothSolver:  Solving for Uy, Initial residual = 0.0190985, Final residual = 4.14117e-07, No Iterations 3
GAMG:  Solving for p, Initial residual = 0.0369695, Final residual = 0.000161312, No Iterations 4
time step continuity errors : sum local = 2.49732e-06, global = 1.84479e-09, cumulative = 8.11184e-05
GAMG:  Solving for p, Initial residual = 0.0129613, Final residual = 7.96247e-08, No Iterations 10
time step continuity errors : sum local = 1.24176e-09, global = 2.8386e-10, cumulative = 8.11187e-05
smoothSolver:  Solving for epsilon, Initial residual = 0.0927333, Final residual = 5.07119e-06, No Iterations 2
smoothSolver:  Solving for k, Initial residual = 0.0491938, Final residual = 2.02113e-06, No Iterations 3
ExecutionTime = 0.69 s  ClockTime = 1 s

Courant Number mean: 0.843225 max: 3.08774
Time = 6.75

PIMPLE: iteration 1
smoothSolver:  Solving for Ux, Initial residual = 0.0109159, Final residual = 5.94588e-07, No Iterations 3
smoothSolver:  Solving for Uy, Initial residual = 0.019397, Final residual = 4.31236e-07, No Iterations 3
GAMG:  Solving for p, Initial residual = 0.0363117, Final residual = 0.000144698, No Iterations 4
time step continuity errors : sum local = 2.27353e-06, global = 7.05147e-08, cumulative = 8.11892e-05
GAMG:  Solving for p, Initial residual = 0.0132836, Final residual = 8.3023e-08, No Iterations 10
time step continuity errors : sum local = 1.31794e-09, global = 3.12999e-10, cumulative = 8.11895e-05
smoothSolver:  Solving for epsilon, Initial residual = 0.18698, Final residual = 8.96612e-06, No Iterations 1
smoothSolver:  Solving for k, Initial residual = 0.0499963, Final residual = 2.76066e-06, No Iterations 3
ExecutionTime = 0.7 s  ClockTime = 1 s

Courant Number mean: 0.846337 max: 3.08786
Time = 7

PIMPLE: iteration 1
smoothSolver:  Solving for Ux, Initial residual = 0.0109805, Final residual = 6.31705e-07, No Iterations 3
smoothSolver:  Solving for Uy, Initial residual = 0.0198528, Final residual = 4.55155e-07, No Iterations 3
GAMG:  Solving for p, Initial residual = 0.0387901, Final residual = 0.000148964, No Iterations 4
time step continuity errors : sum local = 2.38615e-06, global = 2.76847e-08, cumulative = 8.12172e-05
GAMG:  Solving for p, Initial residual = 0.0138549, Final residual = 8.11652e-08, No Iterations 10
time step continuity errors : sum local = 1.31688e-09, global = 3.03152e-10, cumulative = 8.12175e-05
smoothSolver:  Solving for epsilon, Initial residual = 0.0866083, Final residual = 4.26924e-06, No Iterations 2
smoothSolver:  Solving for k, Initial residual = 0.0456415, Final residual = 1.7229e-06, No Iterations 3
ExecutionTime = 0.74 s  ClockTime = 1 s

Courant Number mean: 0.849521 max: 3.08788
Time = 7.25

PIMPLE: iteration 1
smoothSolver:  Solving for Ux, Initial residual = 0.0111012, Final residual = 6.73766e-07, No Iterations 3
smoothSolver:  Solving for Uy, Initial residual = 0.0201547, Final residual = 4.995e-07, No Iterations 3
GAMG:  Solving for p, Initial residual = 0.0398983, Final residual = 0.000141851, No Iterations 4
time step continuity errors : sum local = 2.31901e-06, global = 5.05008e-08, cumulative = 8.1268e-05
GAMG:  Solving for p, Initial residual = 0.0145553, Final residual = 8.18483e-08, No Iterations 10
time step continuity errors : sum local = 1.354e-09, global = 3.11555e-10, cumulative = 8.12683e-05
smoothSolver:  Solving for epsilon, Initial residual = 0.163889, Final residual = 8.25617e-06, No Iterations 1
smoothSolver:  Solving for k, Initial residual = 0.0462544, Final residual = 2.35933e-06, No Iterations 3
ExecutionTime = 0.75 s  ClockTime = 1 s

Courant Number mean: 0.852928 max: 3.08784
Time = 7.5

PIMPLE: iteration 1
smoothSolver:  Solving for Ux, Initial residual = 0.0111933, Final residual = 7.44135e-07, No Iterations 3
smoothSolver:  Solving for Uy, Initial residual = 0.0205996, Final residual = 5.71849e-07, No Iterations 3
GAMG:  Solving for p, Initial residual = 0.0401143, Final residual = 0.000129872, No Iterations 4
time step continuity errors : sum local = 2.15569e-06, global = 2.41139e-08, cumulative = 8.12925e-05
GAMG:  Solving for p, Initial residual = 0.014949, Final residual = 7.61259e-08, No Iterations 10
time step continuity errors : sum local = 1.27406e-09, global = 2.93587e-10, cumulative = 8.12928e-05
smoothSolver:  Solving for epsilon, Initial residual = 0.0809613, Final residual = 3.64186e-06, No Iterations 2
smoothSolver:  Solving for k, Initial residual = 0.0426712, Final residual = 1.49808e-06, No Iterations 3
ExecutionTime = 0.77 s  ClockTime = 1 s

Courant Number mean: 0.856257 max: 3.08775
Time = 7.75

PIMPLE: iteration 1
smoothSolver:  Solving for Ux, Initial residual = 0.0112896, Final residual = 8.20103e-07, No Iterations 3
smoothSolver:  Solving for Uy, Initial residual = 0.0210699, Final residual = 6.5269e-07, No Iterations 3
GAMG:  Solving for p, Initial residual = 0.0415232, Final residual = 0.000408138, No Iterations 3
time step continuity errors : sum local = 6.8929e-06, global = 7.57617e-08, cumulative = 8.13685e-05
GAMG:  Solving for p, Initial residual = 0.0151884, Final residual = 7.79672e-08, No Iterations 10
time step continuity errors : sum local = 1.33242e-09, global = 3.28568e-10, cumulative = 8.13688e-05
smoothSolver:  Solving for epsilon, Initial residual = 0.145386, Final residual = 7.94336e-06, No Iterations 1
smoothSolver:  Solving for k, Initial residual = 0.0430912, Final residual = 2.05449e-06, No Iterations 3
ExecutionTime = 0.78 s  ClockTime = 1 s

Courant Number mean: 0.859558 max: 3.0876
Time = 8

PIMPLE: iteration 1
smoothSolver:  Solving for Ux, Initial residual = 0.0114152, Final residual = 9.1691e-07, No Iterations 3
smoothSolver:  Solving for Uy, Initial residual = 0.0215627, Final residual = 7.43242e-07, No Iterations 3
GAMG:  Solving for p, Initial residual = 0.0436366, Final residual = 0.000380427, No Iterations 3
time step continuity errors : sum local = 6.54126e-06, global = 1.75828e-09, cumulative = 8.13706e-05
GAMG:  Solving for p, Initial residual = 0.0154958, Final residual = 7.011e-08, No Iterations 10
time step continuity errors : sum local = 1.2185e-09, global = 2.79469e-10, cumulative = 8.13709e-05
smoothSolver:  Solving for epsilon, Initial residual = 0.0756854, Final residual = 3.11537e-06, No Iterations 2
smoothSolver:  Solving for k, Initial residual = 0.040367, Final residual = 1.34012e-06, No Iterations 3
ExecutionTime = 0.8 s  ClockTime = 1 s

Courant Number mean: 0.862843 max: 3.08742
Time = 8.25

PIMPLE: iteration 1
smoothSolver:  Solving for Ux, Initial residual = 0.0115208, Final residual = 1.01621e-06, No Iterations 3
smoothSolver:  Solving for Uy, Initial residual = 0.0219356, Final residual = 8.34137e-07, No Iterations 3
GAMG:  Solving for p, Initial residual = 0.0451173, Final residual = 0.000368783, No Iterations 3
time step continuity errors : sum local = 6.44004e-06, global = 9.28565e-08, cumulative = 8.14637e-05
GAMG:  Solving for p, Initial residual = 0.0159467, Final residual = 7.06932e-08, No Iterations 10
time step continuity errors : sum local = 1.24625e-09, global = 3.09466e-10, cumulative = 8.1464e-05
smoothSolver:  Solving for epsilon, Initial residual = 0.13432, Final residual = 8.11192e-06, No Iterations 1
smoothSolver:  Solving for k, Initial residual = 0.0402306, Final residual = 1.82612e-06, No Iterations 3
ExecutionTime = 0.83 s  ClockTime = 1 s

Courant Number mean: 0.86629 max: 3.08725
Time = 8.5

PIMPLE: iteration 1
smoothSolver:  Solving for Ux, Initial residual = 0.0116189, Final residual = 1.15192e-06, No Iterations 3
smoothSolver:  Solving for Uy, Initial residual = 0.0224247, Final residual = 9.69271e-07, No Iterations 3
GAMG:  Solving for p, Initial residual = 0.0460074, Final residual = 0.000374786, No Iterations 3
time step continuity errors : sum local = 6.63688e-06, global = 1.39126e-08, cumulative = 8.1478e-05
GAMG:  Solving for p, Initial residual = 0.0163155, Final residual = 6.80468e-08, No Iterations 10
time step continuity errors : sum local = 1.21467e-09, global = 2.92807e-10, cumulative = 8.14783e-05
smoothSolver:  Solving for epsilon, Initial residual = 0.0708091, Final residual = 2.72374e-06, No Iterations 2
smoothSolver:  Solving for k, Initial residual = 0.0382605, Final residual = 1.23243e-06, No Iterations 3
ExecutionTime = 0.85 s  ClockTime = 1 s

Courant Number mean: 0.869725 max: 3.08711
Time = 8.75

PIMPLE: iteration 1
smoothSolver:  Solving for Ux, Initial residual = 0.0117176, Final residual = 1.28942e-06, No Iterations 3
smoothSolver:  Solving for Uy, Initial residual = 0.0228532, Final residual = 1.14141e-06, No Iterations 3
GAMG:  Solving for p, Initial residual = 0.0463773, Final residual = 0.000361225, No Iterations 3
time step continuity errors : sum local = 6.49086e-06, global = 7.08944e-09, cumulative = 8.14853e-05
GAMG:  Solving for p, Initial residual = 0.0165273, Final residual = 6.38946e-08, No Iterations 10
time step continuity errors : sum local = 1.16081e-09, global = 2.68441e-10, cumulative = 8.14856e-05
smoothSolver:  Solving for epsilon, Initial residual = 0.123238, Final residual = 8.43256e-06, No Iterations 1
smoothSolver:  Solving for k, Initial residual = 0.0377296, Final residual = 1.67277e-06, No Iterations 3
ExecutionTime = 0.86 s  ClockTime = 1 s

Courant Number mean: 0.873119 max: 3.087
Time = 9

PIMPLE: iteration 1
smoothSolver:  Solving for Ux, Initial residual = 0.0118073, Final residual = 1.44867e-06, No Iterations 3
smoothSolver:  Solving for Uy, Initial residual = 0.0232921, Final residual = 1.31971e-06, No Iterations 3
GAMG:  Solving for p, Initial residual = 0.0485091, Final residual = 0.000358719, No Iterations 3
time step continuity errors : sum local = 6.54272e-06, global = -1.88929e-09, cumulative = 8.14837e-05
GAMG:  Solving for p, Initial residual = 0.0167426, Final residual = 6.32324e-08, No Iterations 10
time step continuity errors : sum local = 1.16348e-09, global = 2.80759e-10, cumulative = 8.1484e-05
smoothSolver:  Solving for epsilon, Initial residual = 0.0662678, Final residual = 2.41356e-06, No Iterations 2
smoothSolver:  Solving for k, Initial residual = 0.0365803, Final residual = 1.17462e-06, No Iterations 3
ExecutionTime = 0.9 s  ClockTime = 1 s

Courant Number mean: 0.876507 max: 3.0869
Time = 9.25

PIMPLE: iteration 1
smoothSolver:  Solving for Ux, Initial residual = 0.0118944, Final residual = 1.61479e-06, No Iterations 3
smoothSolver:  Solving for Uy, Initial residual = 0.0235728, Final residual = 1.47456e-06, No Iterations 3
GAMG:  Solving for p, Initial residual = 0.0493528, Final residual = 0.000374955, No Iterations 3
time step continuity errors : sum local = 6.92323e-06, global = -8.62605e-09, cumulative = 8.14754e-05
GAMG:  Solving for p, Initial residual = 0.0172466, Final residual = 6.62814e-08, No Iterations 10
time step continuity errors : sum local = 1.23358e-09, global = 3.1497e-10, cumulative = 8.14757e-05
smoothSolver:  Solving for epsilon, Initial residual = 0.117719, Final residual = 9.31999e-06, No Iterations 1
smoothSolver:  Solving for k, Initial residual = 0.0355675, Final residual = 1.58587e-06, No Iterations 3
ExecutionTime = 0.91 s  ClockTime = 1 s

Courant Number mean: 0.879873 max: 3.08685
Time = 9.5

PIMPLE: iteration 1
smoothSolver:  Solving for Ux, Initial residual = 0.0119998, Final residual = 1.79846e-06, No Iterations 3
smoothSolver:  Solving for Uy, Initial residual = 0.0240877, Final residual = 1.66981e-06, No Iterations 3
GAMG:  Solving for p, Initial residual = 0.0498341, Final residual = 0.000367358, No Iterations 3
time step continuity errors : sum local = 6.87367e-06, global = -4.36517e-08, cumulative = 8.1432e-05
GAMG:  Solving for p, Initial residual = 0.0173977, Final residual = 6.47965e-08, No Iterations 10
time step continuity errors : sum local = 1.22191e-09, global = 3.00001e-10, cumulative = 8.14323e-05
smoothSolver:  Solving for epsilon, Initial residual = 0.0620275, Final residual = 2.20639e-06, No Iterations 2
smoothSolver:  Solving for k, Initial residual = 0.0352835, Final residual = 1.17622e-06, No Iterations 3
ExecutionTime = 0.94 s  ClockTime = 1 s

Courant Number mean: 0.8832 max: 3.08681
Time = 9.75

PIMPLE: iteration 1
smoothSolver:  Solving for Ux, Initial residual = 0.012043, Final residual = 2.0015e-06, No Iterations 3
smoothSolver:  Solving for Uy, Initial residual = 0.0245078, Final residual = 1.94912e-06, No Iterations 3
GAMG:  Solving for p, Initial residual = 0.0505757, Final residual = 0.000364254, No Iterations 3
time step continuity errors : sum local = 6.90848e-06, global = -3.05762e-08, cumulative = 8.14018e-05
GAMG:  Solving for p, Initial residual = 0.0175424, Final residual = 6.63667e-08, No Iterations 10
time step continuity errors : sum local = 1.27031e-09, global = 3.18187e-10, cumulative = 8.14021e-05
smoothSolver:  Solving for epsilon, Initial residual = 0.113874, Final residual = 3.45819e-07, No Iterations 2
smoothSolver:  Solving for k, Initial residual = 0.0336729, Final residual = 1.56467e-06, No Iterations 3
ExecutionTime = 0.96 s  ClockTime = 1 s

Courant Number mean: 0.886675 max: 3.0868
Time = 10

PIMPLE: iteration 1
smoothSolver:  Solving for Ux, Initial residual = 0.0120948, Final residual = 2.21526e-06, No Iterations 3
smoothSolver:  Solving for Uy, Initial residual = 0.024866, Final residual = 2.21023e-06, No Iterations 3
GAMG:  Solving for p, Initial residual = 0.0514157, Final residual = 0.00038534, No Iterations 3
time step continuity errors : sum local = 7.39026e-06, global = -1.55586e-08, cumulative = 8.13865e-05
GAMG:  Solving for p, Initial residual = 0.0175602, Final residual = 7.31941e-08, No Iterations 10
time step continuity errors : sum local = 1.41447e-09, global = 3.80853e-10, cumulative = 8.13869e-05
smoothSolver:  Solving for epsilon, Initial residual = 0.0580603, Final residual = 2.04511e-06, No Iterations 2
smoothSolver:  Solving for k, Initial residual = 0.034083, Final residual = 1.21744e-06, No Iterations 3
ExecutionTime = 0.99 s  ClockTime = 1 s

Courant Number mean: 0.890026 max: 3.08679
Time = 10.25

PIMPLE: iteration 1
smoothSolver:  Solving for Ux, Initial residual = 0.0121688, Final residual = 2.42543e-06, No Iterations 3
smoothSolver:  Solving for Uy, Initial residual = 0.0250472, Final residual = 2.41924e-06, No Iterations 3
GAMG:  Solving for p, Initial residual = 0.0524941, Final residual = 0.00037444, No Iterations 3
time step continuity errors : sum local = 7.26086e-06, global = -7.5168e-08, cumulative = 8.13117e-05
GAMG:  Solving for p, Initial residual = 0.017852, Final residual = 6.8805e-08, No Iterations 10
time step continuity errors : sum local = 1.3434e-09, global = 3.37903e-10, cumulative = 8.13121e-05
smoothSolver:  Solving for epsilon, Initial residual = 0.112025, Final residual = 4.39151e-07, No Iterations 2
smoothSolver:  Solving for k, Initial residual = 0.0320187, Final residual = 1.6092e-06, No Iterations 3
ExecutionTime = 1.01 s  ClockTime = 1 s

Courant Number mean: 0.893237 max: 3.08683
Time = 10.5

PIMPLE: iteration 1
smoothSolver:  Solving for Ux, Initial residual = 0.0122055, Final residual = 2.66298e-06, No Iterations 3
smoothSolver:  Solving for Uy, Initial residual = 0.0255518, Final residual = 2.66478e-06, No Iterations 3
GAMG:  Solving for p, Initial residual = 0.0528777, Final residual = 0.000366611, No Iterations 3
time step continuity errors : sum local = 7.19382e-06, global = -6.3443e-09, cumulative = 8.13057e-05
GAMG:  Solving for p, Initial residual = 0.0180694, Final residual = 6.54392e-08, No Iterations 10
time step continuity errors : sum local = 1.2933e-09, global = 3.26023e-10, cumulative = 8.13061e-05
smoothSolver:  Solving for epsilon, Initial residual = 0.0543552, Final residual = 1.98281e-06, No Iterations 2
smoothSolver:  Solving for k, Initial residual = 0.0332602, Final residual = 1.34315e-06, No Iterations 3
ExecutionTime = 1.04 s  ClockTime = 1 s

Courant Number mean: 0.896663 max: 3.08689
Time = 10.75

PIMPLE: iteration 1
smoothSolver:  Solving for Ux, Initial residual = 0.0122978, Final residual = 2.9129e-06, No Iterations 3
smoothSolver:  Solving for Uy, Initial residual = 0.0258201, Final residual = 3.0379e-06, No Iterations 3
GAMG:  Solving for p, Initial residual = 0.0528722, Final residual = 0.000402178, No Iterations 3
time step continuity errors : sum local = 7.99297e-06, global = -1.14058e-08, cumulative = 8.12946e-05
GAMG:  Solving for p, Initial residual = 0.0182129, Final residual = 7.25072e-08, No Iterations 10
time step continuity errors : sum local = 1.45384e-09, global = 3.97953e-10, cumulative = 8.1295e-05
smoothSolver:  Solving for epsilon, Initial residual = 0.111776, Final residual = 5.71568e-07, No Iterations 2
smoothSolver:  Solving for k, Initial residual = 0.0306079, Final residual = 1.74702e-06, No Iterations 3
ExecutionTime = 1.05 s  ClockTime = 1 s

Courant Number mean: 0.90003 max: 3.08695
Time = 11

PIMPLE: iteration 1
smoothSolver:  Solving for Ux, Initial residual = 0.0122532, Final residual = 3.15891e-06, No Iterations 3
smoothSolver:  Solving for Uy, Initial residual = 0.0260001, Final residual = 3.33858e-06, No Iterations 3
GAMG:  Solving for p, Initial residual = 0.0534624, Final residual = 0.000369342, No Iterations 3
time step continuity errors : sum local = 7.42102e-06, global = -5.98557e-08, cumulative = 8.12352e-05
GAMG:  Solving for p, Initial residual = 0.01769, Final residual = 6.30889e-08, No Iterations 10
time step continuity errors : sum local = 1.27615e-09, global = 3.10219e-10, cumulative = 8.12355e-05
smoothSolver:  Solving for epsilon, Initial residual = 0.0508992, Final residual = 1.97331e-06, No Iterations 2
smoothSolver:  Solving for k, Initial residual = 0.03235, Final residual = 1.51334e-06, No Iterations 3
ExecutionTime = 1.08 s  ClockTime = 1 s

Courant Number mean: 0.903355 max: 3.08704
Time = 11.25

PIMPLE: iteration 1
smoothSolver:  Solving for Ux, Initial residual = 0.0123252, Final residual = 3.42913e-06, No Iterations 3
smoothSolver:  Solving for Uy, Initial residual = 0.026192, Final residual = 3.60071e-06, No Iterations 3
GAMG:  Solving for p, Initial residual = 0.0536017, Final residual = 0.000374889, No Iterations 3
time step continuity errors : sum local = 7.60399e-06, global = 2.2809e-08, cumulative = 8.12583e-05
GAMG:  Solving for p, Initial residual = 0.0180961, Final residual = 6.67608e-08, No Iterations 10
time step continuity errors : sum local = 1.36204e-09, global = 3.57588e-10, cumulative = 8.12587e-05
smoothSolver:  Solving for epsilon, Initial residual = 0.110452, Final residual = 7.58339e-07, No Iterations 2
smoothSolver:  Solving for k, Initial residual = 0.0292297, Final residual = 1.94317e-06, No Iterations 3
ExecutionTime = 1.1 s  ClockTime = 1 s

Courant Number mean: 0.906679 max: 3.08716
Time = 11.5

PIMPLE: iteration 1
smoothSolver:  Solving for Ux, Initial residual = 0.0123699, Final residual = 3.68394e-06, No Iterations 3
smoothSolver:  Solving for Uy, Initial residual = 0.026502, Final residual = 3.88255e-06, No Iterations 3
GAMG:  Solving for p, Initial residual = 0.0533527, Final residual = 0.000391874, No Iterations 3
time step continuity errors : sum local = 8.01444e-06, global = -1.71515e-08, cumulative = 8.12415e-05
GAMG:  Solving for p, Initial residual = 0.0184499, Final residual = 7.32399e-08, No Iterations 10
time step continuity errors : sum local = 1.5055e-09, global = 4.0433e-10, cumulative = 8.12419e-05
smoothSolver:  Solving for epsilon, Initial residual = 0.0476603, Final residual = 2.03902e-06, No Iterations 2
smoothSolver:  Solving for k, Initial residual = 0.0314943, Final residual = 1.78596e-06, No Iterations 3
ExecutionTime = 1.12 s  ClockTime = 1 s

Courant Number mean: 0.909965 max: 3.08728
Time = 11.75

PIMPLE: iteration 1
smoothSolver:  Solving for Ux, Initial residual = 0.0123393, Final residual = 3.96719e-06, No Iterations 3
smoothSolver:  Solving for Uy, Initial residual = 0.0266033, Final residual = 4.27011e-06, No Iterations 3
GAMG:  Solving for p, Initial residual = 0.0529884, Final residual = 0.000373107, No Iterations 3
time step continuity errors : sum local = 7.70567e-06, global = 7.0875e-09, cumulative = 8.1249e-05
GAMG:  Solving for p, Initial residual = 0.0183927, Final residual = 6.64835e-08, No Iterations 10
time step continuity errors : sum local = 1.38145e-09, global = 3.56302e-10, cumulative = 8.12494e-05
smoothSolver:  Solving for epsilon, Initial residual = 0.106513, Final residual = 9.59011e-07, No Iterations 2
smoothSolver:  Solving for k, Initial residual = 0.0281183, Final residual = 2.24249e-06, No Iterations 3
ExecutionTime = 1.14 s  ClockTime = 1 s

Courant Number mean: 0.913247 max: 3.08738
Time = 12

PIMPLE: iteration 1
smoothSolver:  Solving for Ux, Initial residual = 0.0123566, Final residual = 4.2571e-06, No Iterations 3
smoothSolver:  Solving for Uy, Initial residual = 0.0268104, Final residual = 4.62318e-06, No Iterations 3
GAMG:  Solving for p, Initial residual = 0.0539887, Final residual = 0.000379435, No Iterations 3
time step continuity errors : sum local = 7.89595e-06, global = 4.02291e-08, cumulative = 8.12896e-05
GAMG:  Solving for p, Initial residual = 0.0179504, Final residual = 7.15601e-08, No Iterations 10
time step continuity errors : sum local = 1.50059e-09, global = 4.06509e-10, cumulative = 8.129e-05
smoothSolver:  Solving for epsilon, Initial residual = 0.0446177, Final residual = 2.18441e-06, No Iterations 2
smoothSolver:  Solving for k, Initial residual = 0.0305569, Final residual = 2.10783e-06, No Iterations 3
ExecutionTime = 1.17 s  ClockTime = 1 s

Courant Number mean: 0.916703 max: 3.08748
Time = 12.25

PIMPLE: iteration 1
smoothSolver:  Solving for Ux, Initial residual = 0.0123914, Final residual = 4.54285e-06, No Iterations 3
smoothSolver:  Solving for Uy, Initial residual = 0.0268655, Final residual = 4.9399e-06, No Iterations 3
GAMG:  Solving for p, Initial residual = 0.0557807, Final residual = 0.000383104, No Iterations 3
time step continuity errors : sum local = 8.02948e-06, global = 5.84005e-08, cumulative = 8.13484e-05
GAMG:  Solving for p, Initial residual = 0.0183071, Final residual = 7.17499e-08, No Iterations 10
time step continuity errors : sum local = 1.50967e-09, global = 4.16233e-10, cumulative = 8.13488e-05
smoothSolver:  Solving for epsilon, Initial residual = 0.100459, Final residual = 1.21418e-06, No Iterations 2
smoothSolver:  Solving for k, Initial residual = 0.0271894, Final residual = 2.62763e-06, No Iterations 3
ExecutionTime = 1.19 s  ClockTime = 1 s

Courant Number mean: 0.920128 max: 3.08758
Time = 12.5

PIMPLE: iteration 1
smoothSolver:  Solving for Ux, Initial residual = 0.0124033, Final residual = 4.85863e-06, No Iterations 3
smoothSolver:  Solving for Uy, Initial residual = 0.0269904, Final residual = 5.21791e-06, No Iterations 3
GAMG:  Solving for p, Initial residual = 0.0540747, Final residual = 0.000389213, No Iterations 3
time step continuity errors : sum local = 8.20254e-06, global = 6.87773e-08, cumulative = 8.14176e-05
GAMG:  Solving for p, Initial residual = 0.0186931, Final residual = 7.61765e-08, No Iterations 10
time step continuity errors : sum local = 1.61127e-09, global = 4.50097e-10, cumulative = 8.1418e-05
smoothSolver:  Solving for epsilon, Initial residual = 0.041782, Final residual = 2.34304e-06, No Iterations 2
smoothSolver:  Solving for k, Initial residual = 0.0296447, Final residual = 2.55358e-06, No Iterations 3
ExecutionTime = 1.22 s  ClockTime = 1 s

Courant Number mean: 0.923489 max: 3.08766
Time = 12.75

PIMPLE: iteration 1
smoothSolver:  Solving for Ux, Initial residual = 0.0124564, Final residual = 5.16874e-06, No Iterations 3
smoothSolver:  Solving for Uy, Initial residual = 0.0271768, Final residual = 5.60061e-06, No Iterations 3
GAMG:  Solving for p, Initial residual = 0.0548092, Final residual = 0.000398808, No Iterations 3
time step continuity errors : sum local = 8.44101e-06, global = 6.83961e-08, cumulative = 8.14864e-05
GAMG:  Solving for p, Initial residual = 0.0188072, Final residual = 7.76818e-08, No Iterations 10
time step continuity errors : sum local = 1.65336e-09, global = 4.62306e-10, cumulative = 8.14869e-05
smoothSolver:  Solving for epsilon, Initial residual = 0.0935041, Final residual = 1.51198e-06, No Iterations 2
smoothSolver:  Solving for k, Initial residual = 0.0264121, Final residual = 3.13637e-06, No Iterations 3
ExecutionTime = 1.25 s  ClockTime = 1 s

Courant Number mean: 0.92688 max: 3.08771
Time = 13

PIMPLE: iteration 1
smoothSolver:  Solving for Ux, Initial residual = 0.0123772, Final residual = 5.47907e-06, No Iterations 3
smoothSolver:  Solving for Uy, Initial residual = 0.0273453, Final residual = 6.03137e-06, No Iterations 3
GAMG:  Solving for p, Initial residual = 0.0550589, Final residual = 0.000391238, No Iterations 3
time step continuity errors : sum local = 8.34924e-06, global = 1.2002e-07, cumulative = 8.16069e-05
GAMG:  Solving for p, Initial residual = 0.0186309, Final residual = 8.06827e-08, No Iterations 10
time step continuity errors : sum local = 1.73171e-09, global = 4.96288e-10, cumulative = 8.16074e-05
smoothSolver:  Solving for epsilon, Initial residual = 0.039132, Final residual = 2.64663e-06, No Iterations 2
smoothSolver:  Solving for k, Initial residual = 0.028677, Final residual = 3.09745e-06, No Iterations 3
ExecutionTime = 1.26 s  ClockTime = 1 s

Courant Number mean: 0.930511 max: 3.08774
Time = 13.25

PIMPLE: iteration 1
smoothSolver:  Solving for Ux, Initial residual = 0.0123619, Final residual = 5.84373e-06, No Iterations 3
smoothSolver:  Solving for Uy, Initial residual = 0.0272818, Final residual = 6.36536e-06, No Iterations 3
GAMG:  Solving for p, Initial residual = 0.0555716, Final residual = 0.000392977, No Iterations 3
time step continuity errors : sum local = 8.42687e-06, global = 1.39031e-07, cumulative = 8.17464e-05
GAMG:  Solving for p, Initial residual = 0.0187623, Final residual = 8.31591e-08, No Iterations 10
time step continuity errors : sum local = 1.79308e-09, global = 5.28533e-10, cumulative = 8.1747e-05
smoothSolver:  Solving for epsilon, Initial residual = 0.0864215, Final residual = 1.8353e-06, No Iterations 2
smoothSolver:  Solving for k, Initial residual = 0.025634, Final residual = 3.77319e-06, No Iterations 3
ExecutionTime = 1.3 s  ClockTime = 1 s

Courant Number mean: 0.934072 max: 3.08778
Time = 13.5

PIMPLE: iteration 1
smoothSolver:  Solving for Ux, Initial residual = 0.0124069, Final residual = 6.18586e-06, No Iterations 3
smoothSolver:  Solving for Uy, Initial residual = 0.0273308, Final residual = 6.6765e-06, No Iterations 3
GAMG:  Solving for p, Initial residual = 0.0544035, Final residual = 0.000404047, No Iterations 3
time step continuity errors : sum local = 8.71593e-06, global = 1.83698e-07, cumulative = 8.19307e-05
GAMG:  Solving for p, Initial residual = 0.0192279, Final residual = 9.16619e-08, No Iterations 10
time step continuity errors : sum local = 1.98557e-09, global = 5.89179e-10, cumulative = 8.19313e-05
smoothSolver:  Solving for epsilon, Initial residual = 0.0366484, Final residual = 2.9749e-06, No Iterations 2
smoothSolver:  Solving for k, Initial residual = 0.0278528, Final residual = 3.77588e-06, No Iterations 3
ExecutionTime = 1.31 s  ClockTime = 1 s

Courant Number mean: 0.937573 max: 3.0878
Time = 13.75

PIMPLE: iteration 1
smoothSolver:  Solving for Ux, Initial residual = 0.0123734, Final residual = 6.52441e-06, No Iterations 3
smoothSolver:  Solving for Uy, Initial residual = 0.0275976, Final residual = 7.08769e-06, No Iterations 3
GAMG:  Solving for p, Initial residual = 0.0551499, Final residual = 0.000396434, No Iterations 3
time step continuity errors : sum local = 8.5831e-06, global = 1.46564e-07, cumulative = 8.20778e-05
GAMG:  Solving for p, Initial residual = 0.019482, Final residual = 9.76717e-08, No Iterations 10
time step continuity errors : sum local = 2.12377e-09, global = 6.12694e-10, cumulative = 8.20784e-05
smoothSolver:  Solving for epsilon, Initial residual = 0.0794786, Final residual = 2.26539e-06, No Iterations 2
smoothSolver:  Solving for k, Initial residual = 0.0250775, Final residual = 4.56756e-06, No Iterations 3
ExecutionTime = 1.33 s  ClockTime = 1 s

Courant Number mean: 0.941023 max: 3.08781
Time = 14

PIMPLE: iteration 1
smoothSolver:  Solving for Ux, Initial residual = 0.0123156, Final residual = 6.92365e-06, No Iterations 3
smoothSolver:  Solving for Uy, Initial residual = 0.0277578, Final residual = 7.5741e-06, No Iterations 3
GAMG:  Solving for p, Initial residual = 0.0553647, Final residual = 0.000417053, No Iterations 3
time step continuity errors : sum local = 9.06764e-06, global = 2.43815e-07, cumulative = 8.23223e-05
GAMG:  Solving for p, Initial residual = 0.0193524, Final residual = 4.14888e-08, No Iterations 11
time step continuity errors : sum local = 9.07344e-10, global = 1.94431e-10, cumulative = 8.23225e-05
smoothSolver:  Solving for epsilon, Initial residual = 0.0343246, Final residual = 3.40794e-06, No Iterations 2
smoothSolver:  Solving for k, Initial residual = 0.0270952, Final residual = 4.64368e-06, No Iterations 3
ExecutionTime = 1.35 s  ClockTime = 1 s

Courant Number mean: 0.94468 max: 3.0878
Time = 14.25

PIMPLE: iteration 1
smoothSolver:  Solving for Ux, Initial residual = 0.0123377, Final residual = 7.30139e-06, No Iterations 3
smoothSolver:  Solving for Uy, Initial residual = 0.0275753, Final residual = 7.91364e-06, No Iterations 3
GAMG:  Solving for p, Initial residual = 0.0563669, Final residual = 0.00043153, No Iterations 3
time step continuity errors : sum local = 9.44117e-06, global = 1.69211e-07, cumulative = 8.24917e-05
GAMG:  Solving for p, Initial residual = 0.0194208, Final residual = 4.29957e-08, No Iterations 11
time step continuity errors : sum local = 9.45333e-10, global = 2.0749e-10, cumulative = 8.24919e-05
smoothSolver:  Solving for epsilon, Initial residual = 0.0728255, Final residual = 2.71359e-06, No Iterations 2
smoothSolver:  Solving for k, Initial residual = 0.0245622, Final residual = 5.53252e-06, No Iterations 3
ExecutionTime = 1.36 s  ClockTime = 1 s

Courant Number mean: 0.948347 max: 3.08778
Time = 14.5

PIMPLE: iteration 1
smoothSolver:  Solving for Ux, Initial residual = 0.0122802, Final residual = 7.72163e-06, No Iterations 3
smoothSolver:  Solving for Uy, Initial residual = 0.0276516, Final residual = 8.3112e-06, No Iterations 3
GAMG:  Solving for p, Initial residual = 0.0551915, Final residual = 0.000446162, No Iterations 3
time step continuity errors : sum local = 9.80779e-06, global = 2.5128e-07, cumulative = 8.27431e-05
GAMG:  Solving for p, Initial residual = 0.0196549, Final residual = 4.59994e-08, No Iterations 11
time step continuity errors : sum local = 1.01701e-09, global = 2.177e-10, cumulative = 8.27434e-05
smoothSolver:  Solving for epsilon, Initial residual = 0.0321409, Final residual = 3.90209e-06, No Iterations 2
smoothSolver:  Solving for k, Initial residual = 0.0264248, Final residual = 5.64702e-06, No Iterations 3
ExecutionTime = 1.4 s  ClockTime = 1 s

Courant Number mean: 0.951975 max: 3.08778
Time = 14.75

PIMPLE: iteration 1
smoothSolver:  Solving for Ux, Initial residual = 0.0122868, Final residual = 8.13279e-06, No Iterations 3
smoothSolver:  Solving for Uy, Initial residual = 0.0276998, Final residual = 8.77827e-06, No Iterations 3
GAMG:  Solving for p, Initial residual = 0.0552886, Final residual = 0.000471302, No Iterations 3
time step continuity errors : sum local = 1.04246e-05, global = 1.84007e-07, cumulative = 8.29274e-05
GAMG:  Solving for p, Initial residual = 0.019825, Final residual = 4.52084e-08, No Iterations 11
time step continuity errors : sum local = 1.00518e-09, global = 2.17498e-10, cumulative = 8.29276e-05
smoothSolver:  Solving for epsilon, Initial residual = 0.0665582, Final residual = 3.30915e-06, No Iterations 2
smoothSolver:  Solving for k, Initial residual = 0.024208, Final residual = 6.72394e-06, No Iterations 3
ExecutionTime = 1.41 s  ClockTime = 1 s

Courant Number mean: 0.955614 max: 3.08775
Time = 15

PIMPLE: iteration 1
smoothSolver:  Solving for Ux, Initial residual = 0.0122445, Final residual = 8.55204e-06, No Iterations 3
smoothSolver:  Solving for Uy, Initial residual = 0.0277612, Final residual = 9.22521e-06, No Iterations 3
GAMG:  Solving for p, Initial residual = 0.0563564, Final residual = 0.000490183, No Iterations 3
time step continuity errors : sum local = 1.08934e-05, global = 2.31567e-07, cumulative = 8.31592e-05
GAMG:  Solving for p, Initial residual = 0.0201351, Final residual = 5.05674e-08, No Iterations 11
time step continuity errors : sum local = 1.13065e-09, global = 2.45342e-10, cumulative = 8.31594e-05
smoothSolver:  Solving for epsilon, Initial residual = 0.0301158, Final residual = 4.50328e-06, No Iterations 2
smoothSolver:  Solving for k, Initial residual = 0.02583, Final residual = 6.94792e-06, No Iterations 3
ExecutionTime = 1.43 s  ClockTime = 2 s

Courant Number mean: 0.959281 max: 3.08771
Time = 15.25

PIMPLE: iteration 1
smoothSolver:  Solving for Ux, Initial residual = 0.0121902, Final residual = 9.0293e-06, No Iterations 3
smoothSolver:  Solving for Uy, Initial residual = 0.0278353, Final residual = 9.70765e-06, No Iterations 3
GAMG:  Solving for p, Initial residual = 0.0559256, Final residual = 0.000520332, No Iterations 3
time step continuity errors : sum local = 1.16281e-05, global = 2.06816e-07, cumulative = 8.33662e-05
GAMG:  Solving for p, Initial residual = 0.0201614, Final residual = 5.21314e-08, No Iterations 11
time step continuity errors : sum local = 1.17032e-09, global = 2.47085e-10, cumulative = 8.33665e-05
smoothSolver:  Solving for epsilon, Initial residual = 0.060711, Final residual = 3.90012e-06, No Iterations 2
smoothSolver:  Solving for k, Initial residual = 0.0238019, Final residual = 8.09875e-06, No Iterations 3
ExecutionTime = 1.46 s  ClockTime = 2 s

Courant Number mean: 0.962978 max: 3.08765
Time = 15.5

PIMPLE: iteration 1
smoothSolver:  Solving for Ux, Initial residual = 0.0121962, Final residual = 9.481e-06, No Iterations 3
smoothSolver:  Solving for Uy, Initial residual = 0.0277568, Final residual = 1.12712e-06, No Iterations 4
GAMG:  Solving for p, Initial residual = 0.0560864, Final residual = 0.000547556, No Iterations 3
time step continuity errors : sum local = 1.22909e-05, global = 1.50685e-07, cumulative = 8.35172e-05
GAMG:  Solving for p, Initial residual = 0.0202643, Final residual = 5.33725e-08, No Iterations 11
time step continuity errors : sum local = 1.20306e-09, global = 2.82539e-10, cumulative = 8.35174e-05
smoothSolver:  Solving for epsilon, Initial residual = 0.0282113, Final residual = 5.23107e-06, No Iterations 2
smoothSolver:  Solving for k, Initial residual = 0.0253165, Final residual = 8.39713e-06, No Iterations 3
ExecutionTime = 1.49 s  ClockTime = 2 s

Courant Number mean: 0.966617 max: 3.08758
Time = 15.75

PIMPLE: iteration 1
smoothSolver:  Solving for Ux, Initial residual = 0.0121669, Final residual = 9.96579e-06, No Iterations 3
smoothSolver:  Solving for Uy, Initial residual = 0.0277339, Final residual = 1.20855e-06, No Iterations 4
GAMG:  Solving for p, Initial residual = 0.0560338, Final residual = 0.000177451, No Iterations 4
time step continuity errors : sum local = 3.99912e-06, global = 2.2728e-07, cumulative = 8.37447e-05
GAMG:  Solving for p, Initial residual = 0.0203431, Final residual = 5.7859e-08, No Iterations 11
time step continuity errors : sum local = 1.30891e-09, global = 3.48488e-10, cumulative = 8.37451e-05
smoothSolver:  Solving for epsilon, Initial residual = 0.0553101, Final residual = 4.69771e-06, No Iterations 2
smoothSolver:  Solving for k, Initial residual = 0.0235993, Final residual = 9.78554e-06, No Iterations 3
ExecutionTime = 1.52 s  ClockTime = 2 s

Courant Number mean: 0.970252 max: 3.08754
Time = 16

PIMPLE: iteration 1
smoothSolver:  Solving for Ux, Initial residual = 0.0121249, Final residual = 1.29979e-06, No Iterations 4
smoothSolver:  Solving for Uy, Initial residual = 0.0277746, Final residual = 1.30216e-06, No Iterations 4
GAMG:  Solving for p, Initial residual = 0.0568908, Final residual = 0.000192273, No Iterations 4
time step continuity errors : sum local = 4.34697e-06, global = 1.82369e-07, cumulative = 8.39274e-05
GAMG:  Solving for p, Initial residual = 0.0206324, Final residual = 5.97489e-08, No Iterations 11
time step continuity errors : sum local = 1.35943e-09, global = 3.74145e-10, cumulative = 8.39278e-05
smoothSolver:  Solving for epsilon, Initial residual = 0.0264413, Final residual = 5.96269e-06, No Iterations 2
smoothSolver:  Solving for k, Initial residual = 0.0249192, Final residual = 1.24213e-06, No Iterations 4
ExecutionTime = 1.55 s  ClockTime = 2 s

Courant Number mean: 0.974093 max: 3.08748
Time = 16.25

PIMPLE: iteration 1
smoothSolver:  Solving for Ux, Initial residual = 0.0121314, Final residual = 1.39759e-06, No Iterations 4
smoothSolver:  Solving for Uy, Initial residual = 0.0278044, Final residual = 1.40227e-06, No Iterations 4
GAMG:  Solving for p, Initial residual = 0.0566371, Final residual = 0.00019892, No Iterations 4
time step continuity errors : sum local = 4.52277e-06, global = 1.72871e-07, cumulative = 8.41007e-05
GAMG:  Solving for p, Initial residual = 0.0209596, Final residual = 6.39484e-08, No Iterations 11
time step continuity errors : sum local = 1.46089e-09, global = 4.04186e-10, cumulative = 8.41011e-05
smoothSolver:  Solving for epsilon, Initial residual = 0.050334, Final residual = 5.53615e-06, No Iterations 2
smoothSolver:  Solving for k, Initial residual = 0.0235571, Final residual = 1.46761e-06, No Iterations 4
ExecutionTime = 1.58 s  ClockTime = 2 s

Courant Number mean: 0.977761 max: 3.08742
Time = 16.5

PIMPLE: iteration 1
smoothSolver:  Solving for Ux, Initial residual = 0.012111, Final residual = 1.50113e-06, No Iterations 4
smoothSolver:  Solving for Uy, Initial residual = 0.0277279, Final residual = 1.50243e-06, No Iterations 4
GAMG:  Solving for p, Initial residual = 0.0564004, Final residual = 0.000211709, No Iterations 4
time step continuity errors : sum local = 4.83689e-06, global = 1.82294e-07, cumulative = 8.42834e-05
GAMG:  Solving for p, Initial residual = 0.0213041, Final residual = 6.87221e-08, No Iterations 11
time step continuity errors : sum local = 1.57654e-09, global = 4.18984e-10, cumulative = 8.42838e-05
smoothSolver:  Solving for epsilon, Initial residual = 0.0247938, Final residual = 6.92981e-06, No Iterations 2
smoothSolver:  Solving for k, Initial residual = 0.0247929, Final residual = 1.57566e-06, No Iterations 4
ExecutionTime = 1.61 s  ClockTime = 2 s

Courant Number mean: 0.981229 max: 3.08736
Time = 16.75

PIMPLE: iteration 1
smoothSolver:  Solving for Ux, Initial residual = 0.0120053, Final residual = 1.60381e-06, No Iterations 4
smoothSolver:  Solving for Uy, Initial residual = 0.0277907, Final residual = 1.59968e-06, No Iterations 4
GAMG:  Solving for p, Initial residual = 0.0566242, Final residual = 0.00022482, No Iterations 4
time step continuity errors : sum local = 5.15378e-06, global = 1.37322e-07, cumulative = 8.44211e-05
GAMG:  Solving for p, Initial residual = 0.0212634, Final residual = 7.21859e-08, No Iterations 11
time step continuity errors : sum local = 1.66117e-09, global = 4.41272e-10, cumulative = 8.44216e-05
smoothSolver:  Solving for epsilon, Initial residual = 0.0458193, Final residual = 6.48334e-06, No Iterations 2
smoothSolver:  Solving for k, Initial residual = 0.0235883, Final residual = 1.84139e-06, No Iterations 4
ExecutionTime = 1.66 s  ClockTime = 2 s

Courant Number mean: 0.985039 max: 3.08729
Time = 17

PIMPLE: iteration 1
smoothSolver:  Solving for Ux, Initial residual = 0.0119605, Final residual = 1.71745e-06, No Iterations 4
smoothSolver:  Solving for Uy, Initial residual = 0.0278088, Final residual = 1.70724e-06, No Iterations 4
GAMG:  Solving for p, Initial residual = 0.0595525, Final residual = 0.000237078, No Iterations 4
time step continuity errors : sum local = 5.45145e-06, global = 3.034e-08, cumulative = 8.44519e-05
GAMG:  Solving for p, Initial residual = 0.02144, Final residual = 7.41656e-08, No Iterations 11
time step continuity errors : sum local = 1.71356e-09, global = 4.70378e-10, cumulative = 8.44524e-05
smoothSolver:  Solving for epsilon, Initial residual = 0.0232592, Final residual = 7.95438e-06, No Iterations 2
smoothSolver:  Solving for k, Initial residual = 0.0246503, Final residual = 1.96922e-06, No Iterations 4
ExecutionTime = 1.69 s  ClockTime = 2 s

Courant Number mean: 0.988856 max: 3.08724
Time = 17.25

PIMPLE: iteration 1
smoothSolver:  Solving for Ux, Initial residual = 0.0119688, Final residual = 1.83163e-06, No Iterations 4
smoothSolver:  Solving for Uy, Initial residual = 0.027697, Final residual = 1.83299e-06, No Iterations 4
GAMG:  Solving for p, Initial residual = 0.0598449, Final residual = 0.000242412, No Iterations 4
time step continuity errors : sum local = 5.60291e-06, global = 1.03187e-07, cumulative = 8.45556e-05
GAMG:  Solving for p, Initial residual = 0.022034, Final residual = 7.81764e-08, No Iterations 11
time step continuity errors : sum local = 1.81505e-09, global = 4.96721e-10, cumulative = 8.45561e-05
smoothSolver:  Solving for epsilon, Initial residual = 0.0417012, Final residual = 7.52095e-06, No Iterations 2
smoothSolver:  Solving for k, Initial residual = 0.0236808, Final residual = 2.28025e-06, No Iterations 4
ExecutionTime = 1.72 s  ClockTime = 2 s

Courant Number mean: 0.992643 max: 3.08719
Time = 17.5

PIMPLE: iteration 1
smoothSolver:  Solving for Ux, Initial residual = 0.0119712, Final residual = 1.94988e-06, No Iterations 4
smoothSolver:  Solving for Uy, Initial residual = 0.0277712, Final residual = 1.957e-06, No Iterations 4
GAMG:  Solving for p, Initial residual = 0.0577789, Final residual = 0.000249009, No Iterations 4
time step continuity errors : sum local = 5.77417e-06, global = 1.54576e-07, cumulative = 8.47106e-05
GAMG:  Solving for p, Initial residual = 0.0223201, Final residual = 8.36151e-08, No Iterations 11
time step continuity errors : sum local = 1.94823e-09, global = 5.08006e-10, cumulative = 8.47111e-05
smoothSolver:  Solving for epsilon, Initial residual = 0.0218439, Final residual = 9.11618e-06, No Iterations 2
smoothSolver:  Solving for k, Initial residual = 0.0245984, Final residual = 2.44446e-06, No Iterations 4
ExecutionTime = 1.74 s  ClockTime = 2 s

Courant Number mean: 0.996477 max: 3.08715
Time = 17.75

PIMPLE: iteration 1
smoothSolver:  Solving for Ux, Initial residual = 0.0119447, Final residual = 2.07468e-06, No Iterations 4
smoothSolver:  Solving for Uy, Initial residual = 0.027783, Final residual = 2.0774e-06, No Iterations 4
GAMG:  Solving for p, Initial residual = 0.0582697, Final residual = 0.000260328, No Iterations 4
time step continuity errors : sum local = 6.05836e-06, global = 2.46608e-08, cumulative = 8.47358e-05
GAMG:  Solving for p, Initial residual = 0.0226572, Final residual = 8.79379e-08, No Iterations 11
time step continuity errors : sum local = 2.05355e-09, global = 5.47641e-10, cumulative = 8.47363e-05
smoothSolver:  Solving for epsilon, Initial residual = 0.0379842, Final residual = 8.78794e-06, No Iterations 2
smoothSolver:  Solving for k, Initial residual = 0.0237573, Final residual = 2.79326e-06, No Iterations 4
ExecutionTime = 1.77 s  ClockTime = 2 s

Courant Number mean: 1.00003 max: 3.08711
Time = 18

PIMPLE: iteration 1
smoothSolver:  Solving for Ux, Initial residual = 0.0118902, Final residual = 2.20383e-06, No Iterations 4
smoothSolver:  Solving for Uy, Initial residual = 0.0277551, Final residual = 2.21211e-06, No Iterations 4
GAMG:  Solving for p, Initial residual = 0.0600006, Final residual = 0.000267257, No Iterations 4
time step continuity errors : sum local = 6.24213e-06, global = 1.02933e-07, cumulative = 8.48393e-05
GAMG:  Solving for p, Initial residual = 0.0228307, Final residual = 8.9821e-08, No Iterations 11
time step continuity errors : sum local = 2.10567e-09, global = 5.65388e-10, cumulative = 8.48398e-05
smoothSolver:  Solving for epsilon, Initial residual = 0.0205067, Final residual = 1.32443e-06, No Iterations 3
smoothSolver:  Solving for k, Initial residual = 0.024547, Final residual = 2.97913e-06, No Iterations 4
ExecutionTime = 1.8 s  ClockTime = 2 s

Courant Number mean: 1.00372 max: 3.08707
Time = 18.25

PIMPLE: iteration 1
smoothSolver:  Solving for Ux, Initial residual = 0.0118455, Final residual = 2.33799e-06, No Iterations 4
smoothSolver:  Solving for Uy, Initial residual = 0.0277196, Final residual = 2.36335e-06, No Iterations 4
GAMG:  Solving for p, Initial residual = 0.0618316, Final residual = 0.000276193, No Iterations 4
time step continuity errors : sum local = 6.49328e-06, global = 3.22857e-08, cumulative = 8.48721e-05
GAMG:  Solving for p, Initial residual = 0.0232522, Final residual = 9.72822e-08, No Iterations 11
time step continuity errors : sum local = 2.3036e-09, global = 5.89548e-10, cumulative = 8.48727e-05
smoothSolver:  Solving for epsilon, Initial residual = 0.0345964, Final residual = 1.31374e-06, No Iterations 3
smoothSolver:  Solving for k, Initial residual = 0.0239492, Final residual = 3.38303e-06, No Iterations 4
ExecutionTime = 1.82 s  ClockTime = 2 s

Courant Number mean: 1.00783 max: 3.08703
Time = 18.5

PIMPLE: iteration 1
smoothSolver:  Solving for Ux, Initial residual = 0.011844, Final residual = 2.47855e-06, No Iterations 4
smoothSolver:  Solving for Uy, Initial residual = 0.0277118, Final residual = 2.51376e-06, No Iterations 4
GAMG:  Solving for p, Initial residual = 0.0612371, Final residual = 0.000279859, No Iterations 4
time step continuity errors : sum local = 6.62895e-06, global = 8.56544e-08, cumulative = 8.49584e-05
GAMG:  Solving for p, Initial residual = 0.0233887, Final residual = 9.79165e-08, No Iterations 11
time step continuity errors : sum local = 2.33133e-09, global = 6.13741e-10, cumulative = 8.4959e-05
smoothSolver:  Solving for epsilon, Initial residual = 0.0192727, Final residual = 1.55115e-06, No Iterations 3
smoothSolver:  Solving for k, Initial residual = 0.024703, Final residual = 3.60252e-06, No Iterations 4
ExecutionTime = 1.84 s  ClockTime = 2 s

Courant Number mean: 1.01163 max: 3.087
Time = 18.75

PIMPLE: iteration 1
smoothSolver:  Solving for Ux, Initial residual = 0.0118285, Final residual = 2.61431e-06, No Iterations 4
smoothSolver:  Solving for Uy, Initial residual = 0.0277552, Final residual = 2.65933e-06, No Iterations 4
GAMG:  Solving for p, Initial residual = 0.0605571, Final residual = 0.000286504, No Iterations 4
time step continuity errors : sum local = 6.82025e-06, global = -2.34107e-08, cumulative = 8.49356e-05
GAMG:  Solving for p, Initial residual = 0.0239468, Final residual = 4.13887e-08, No Iterations 12
time step continuity errors : sum local = 9.88456e-10, global = 2.2345e-10, cumulative = 8.49358e-05
smoothSolver:  Solving for epsilon, Initial residual = 0.0315725, Final residual = 1.5512e-06, No Iterations 3
smoothSolver:  Solving for k, Initial residual = 0.0241987, Final residual = 4.04392e-06, No Iterations 4
ExecutionTime = 1.87 s  ClockTime = 2 s

Courant Number mean: 1.01538 max: 3.08698
Time = 19

PIMPLE: iteration 1
smoothSolver:  Solving for Ux, Initial residual = 0.011769, Final residual = 2.75892e-06, No Iterations 4
smoothSolver:  Solving for Uy, Initial residual = 0.0278094, Final residual = 2.82217e-06, No Iterations 4
GAMG:  Solving for p, Initial residual = 0.0615635, Final residual = 0.000291632, No Iterations 4
time step continuity errors : sum local = 6.96752e-06, global = 4.70594e-08, cumulative = 8.49829e-05
GAMG:  Solving for p, Initial residual = 0.0240493, Final residual = 4.24133e-08, No Iterations 12
time step continuity errors : sum local = 1.0161e-09, global = 2.26738e-10, cumulative = 8.49831e-05
smoothSolver:  Solving for epsilon, Initial residual = 0.0181226, Final residual = 1.81997e-06, No Iterations 3
smoothSolver:  Solving for k, Initial residual = 0.0248341, Final residual = 4.2981e-06, No Iterations 4
ExecutionTime = 1.91 s  ClockTime = 2 s

Courant Number mean: 1.01945 max: 3.08696
Time = 19.25

PIMPLE: iteration 1
smoothSolver:  Solving for Ux, Initial residual = 0.0117889, Final residual = 2.9138e-06, No Iterations 4
smoothSolver:  Solving for Uy, Initial residual = 0.0277599, Final residual = 2.99672e-06, No Iterations 4
GAMG:  Solving for p, Initial residual = 0.0632732, Final residual = 0.000300046, No Iterations 4
time step continuity errors : sum local = 7.19936e-06, global = -3.9299e-08, cumulative = 8.49438e-05
GAMG:  Solving for p, Initial residual = 0.024873, Final residual = 4.4381e-08, No Iterations 12
time step continuity errors : sum local = 1.06878e-09, global = 2.4681e-10, cumulative = 8.4944e-05
smoothSolver:  Solving for epsilon, Initial residual = 0.0288474, Final residual = 1.82151e-06, No Iterations 3
smoothSolver:  Solving for k, Initial residual = 0.0246111, Final residual = 4.78575e-06, No Iterations 4
ExecutionTime = 1.92 s  ClockTime = 2 s

Courant Number mean: 1.0233 max: 3.08695
Time = 19.5

PIMPLE: iteration 1
smoothSolver:  Solving for Ux, Initial residual = 0.0118136, Final residual = 3.0665e-06, No Iterations 4
smoothSolver:  Solving for Uy, Initial residual = 0.0277264, Final residual = 3.16982e-06, No Iterations 4
GAMG:  Solving for p, Initial residual = 0.0621099, Final residual = 0.000297711, No Iterations 4
time step continuity errors : sum local = 7.19401e-06, global = -9.47643e-09, cumulative = 8.49346e-05
GAMG:  Solving for p, Initial residual = 0.0248084, Final residual = 4.57723e-08, No Iterations 12
time step continuity errors : sum local = 1.11e-09, global = 2.61458e-10, cumulative = 8.49348e-05
smoothSolver:  Solving for epsilon, Initial residual = 0.0170861, Final residual = 2.10531e-06, No Iterations 3
smoothSolver:  Solving for k, Initial residual = 0.0251143, Final residual = 5.05444e-06, No Iterations 4
ExecutionTime = 1.95 s  ClockTime = 2 s

Courant Number mean: 1.02697 max: 3.08695
Time = 19.75

PIMPLE: iteration 1
smoothSolver:  Solving for Ux, Initial residual = 0.0117672, Final residual = 3.21297e-06, No Iterations 4
smoothSolver:  Solving for Uy, Initial residual = 0.027758, Final residual = 3.34891e-06, No Iterations 4
GAMG:  Solving for p, Initial residual = 0.0622858, Final residual = 0.000302829, No Iterations 4
time step continuity errors : sum local = 7.37665e-06, global = -2.39329e-08, cumulative = 8.49109e-05
GAMG:  Solving for p, Initial residual = 0.0250373, Final residual = 4.69115e-08, No Iterations 12
time step continuity errors : sum local = 1.14864e-09, global = 2.72873e-10, cumulative = 8.49112e-05
smoothSolver:  Solving for epsilon, Initial residual = 0.0264044, Final residual = 2.11213e-06, No Iterations 3
smoothSolver:  Solving for k, Initial residual = 0.024882, Final residual = 5.56738e-06, No Iterations 4
ExecutionTime = 1.98 s  ClockTime = 2 s

Courant Number mean: 1.03113 max: 3.08695
Time = 20

PIMPLE: iteration 1
smoothSolver:  Solving for Ux, Initial residual = 0.0117161, Final residual = 3.36822e-06, No Iterations 4
smoothSolver:  Solving for Uy, Initial residual = 0.0277919, Final residual = 3.53189e-06, No Iterations 4
GAMG:  Solving for p, Initial residual = 0.0636079, Final residual = 0.000305019, No Iterations 4
time step continuity errors : sum local = 7.47011e-06, global = -8.24836e-08, cumulative = 8.48287e-05
GAMG:  Solving for p, Initial residual = 0.0252403, Final residual = 5.05798e-08, No Iterations 12
time step continuity errors : sum local = 1.24095e-09, global = 2.9055e-10, cumulative = 8.4829e-05
smoothSolver:  Solving for epsilon, Initial residual = 0.0160869, Final residual = 2.40817e-06, No Iterations 3
smoothSolver:  Solving for k, Initial residual = 0.025346, Final residual = 5.83946e-06, No Iterations 4
ExecutionTime = 2 s  ClockTime = 2 s

Courant Number mean: 1.035 max: 3.08695
Time = 20.25

PIMPLE: iteration 1
smoothSolver:  Solving for Ux, Initial residual = 0.0117293, Final residual = 3.53022e-06, No Iterations 4
smoothSolver:  Solving for Uy, Initial residual = 0.0277577, Final residual = 3.71521e-06, No Iterations 4
GAMG:  Solving for p, Initial residual = 0.0651491, Final residual = 0.000301431, No Iterations 4
time step continuity errors : sum local = 7.42067e-06, global = -3.45042e-08, cumulative = 8.47945e-05
GAMG:  Solving for p, Initial residual = 0.0261504, Final residual = 5.18223e-08, No Iterations 12
time step continuity errors : sum local = 1.27742e-09, global = 2.95032e-10, cumulative = 8.47948e-05
smoothSolver:  Solving for epsilon, Initial residual = 0.0241959, Final residual = 2.41952e-06, No Iterations 3
smoothSolver:  Solving for k, Initial residual = 0.0252241, Final residual = 6.37066e-06, No Iterations 4
ExecutionTime = 2.04 s  ClockTime = 2 s

Courant Number mean: 1.03878 max: 3.08695
Time = 20.5

PIMPLE: iteration 1
smoothSolver:  Solving for Ux, Initial residual = 0.0117101, Final residual = 3.68434e-06, No Iterations 4
smoothSolver:  Solving for Uy, Initial residual = 0.0277809, Final residual = 3.9185e-06, No Iterations 4
GAMG:  Solving for p, Initial residual = 0.0640946, Final residual = 0.000305703, No Iterations 4
time step continuity errors : sum local = 7.5654e-06, global = -3.69528e-08, cumulative = 8.47578e-05
GAMG:  Solving for p, Initial residual = 0.0261458, Final residual = 5.28882e-08, No Iterations 12
time step continuity errors : sum local = 1.31184e-09, global = 2.98758e-10, cumulative = 8.47581e-05
smoothSolver:  Solving for epsilon, Initial residual = 0.015179, Final residual = 2.72137e-06, No Iterations 3
smoothSolver:  Solving for k, Initial residual = 0.0256347, Final residual = 6.65798e-06, No Iterations 4
ExecutionTime = 2.06 s  ClockTime = 2 s

Courant Number mean: 1.04284 max: 3.08696
Time = 20.75

PIMPLE: iteration 1
smoothSolver:  Solving for Ux, Initial residual = 0.0116951, Final residual = 3.8419e-06, No Iterations 4
smoothSolver:  Solving for Uy, Initial residual = 0.0278301, Final residual = 4.12619e-06, No Iterations 4
GAMG:  Solving for p, Initial residual = 0.0634231, Final residual = 0.000301672, No Iterations 4
time step continuity errors : sum local = 7.52014e-06, global = -2.8933e-08, cumulative = 8.47292e-05
[...]
GAMG:  Solving for p, Initial residual = 1.5527e-07, Final residual = 3.21471e-09, No Iterations 1
time step continuity errors : sum local = 2.55574e-11, global = -1.78939e-12, cumulative = 0.000213892
GAMG:  Solving for p, Initial residual = 5.96283e-08, Final residual = 5.96283e-08, No Iterations 0
time step continuity errors : sum local = 4.74053e-10, global = -4.04513e-12, cumulative = 0.000213892
smoothSolver:  Solving for epsilon, Initial residual = 7.8748e-06, Final residual = 7.8748e-06, No Iterations 0
smoothSolver:  Solving for k, Initial residual = 9.83458e-06, Final residual = 9.83458e-06, No Iterations 0
ExecutionTime = 54.14 s  ClockTime = 55 s

Courant Number mean: 0.950816 max: 3.08678
Time = 995.25

PIMPLE: iteration 1
smoothSolver:  Solving for Ux, Initial residual = 7.96746e-10, Final residual = 7.96746e-10, No Iterations 0
smoothSolver:  Solving for Uy, Initial residual = 2.10223e-09, Final residual = 2.10223e-09, No Iterations 0
GAMG:  Solving for p, Initial residual = 1.43191e-07, Final residual = 3.01389e-09, No Iterations 1
time step continuity errors : sum local = 2.39608e-11, global = 1.7633e-12, cumulative = 0.000213892
GAMG:  Solving for p, Initial residual = 5.49395e-08, Final residual = 5.49395e-08, No Iterations 0
time step continuity errors : sum local = 4.36776e-10, global = 4.7986e-12, cumulative = 0.000213892
smoothSolver:  Solving for epsilon, Initial residual = 7.87475e-06, Final residual = 7.87475e-06, No Iterations 0
smoothSolver:  Solving for k, Initial residual = 9.83459e-06, Final residual = 9.83459e-06, No Iterations 0
ExecutionTime = 54.15 s  ClockTime = 55 s

Courant Number mean: 0.950816 max: 3.08678
Time = 995.5

PIMPLE: iteration 1
smoothSolver:  Solving for Ux, Initial residual = 6.12782e-10, Final residual = 6.12782e-10, No Iterations 0
smoothSolver:  Solving for Uy, Initial residual = 1.99407e-09, Final residual = 1.99407e-09, No Iterations 0
GAMG:  Solving for p, Initial residual = 1.34181e-07, Final residual = 2.63342e-09, No Iterations 1
time step continuity errors : sum local = 2.0936e-11, global = -1.19619e-12, cumulative = 0.000213892
GAMG:  Solving for p, Initial residual = 5.11052e-08, Final residual = 5.11052e-08, No Iterations 0
time step continuity errors : sum local = 4.06293e-10, global = -3.3652e-12, cumulative = 0.000213892
smoothSolver:  Solving for epsilon, Initial residual = 7.87474e-06, Final residual = 7.87474e-06, No Iterations 0
smoothSolver:  Solving for k, Initial residual = 9.83456e-06, Final residual = 9.83456e-06, No Iterations 0
ExecutionTime = 54.15 s  ClockTime = 55 s

Courant Number mean: 0.950816 max: 3.08678
Time = 995.75

PIMPLE: iteration 1
smoothSolver:  Solving for Ux, Initial residual = 6.26158e-10, Final residual = 6.26158e-10, No Iterations 0
smoothSolver:  Solving for Uy, Initial residual = 1.85026e-09, Final residual = 1.85026e-09, No Iterations 0
GAMG:  Solving for p, Initial residual = 1.24624e-07, Final residual = 1.90617e-09, No Iterations 1
time step continuity errors : sum local = 1.51544e-11, global = 7.81715e-13, cumulative = 0.000213892
GAMG:  Solving for p, Initial residual = 4.67108e-08, Final residual = 4.67108e-08, No Iterations 0
time step continuity errors : sum local = 3.71358e-10, global = 7.31045e-13, cumulative = 0.000213892
smoothSolver:  Solving for epsilon, Initial residual = 7.87477e-06, Final residual = 7.87477e-06, No Iterations 0
smoothSolver:  Solving for k, Initial residual = 9.83459e-06, Final residual = 9.83459e-06, No Iterations 0
ExecutionTime = 54.17 s  ClockTime = 55 s

Courant Number mean: 0.950816 max: 3.08678
Time = 996

PIMPLE: iteration 1
smoothSolver:  Solving for Ux, Initial residual = 5.53858e-10, Final residual = 5.53858e-10, No Iterations 0
smoothSolver:  Solving for Uy, Initial residual = 1.63814e-09, Final residual = 1.63814e-09, No Iterations 0
GAMG:  Solving for p, Initial residual = 1.16383e-07, Final residual = 1.67561e-09, No Iterations 1
time step continuity errors : sum local = 1.33214e-11, global = 2.08752e-13, cumulative = 0.000213892
GAMG:  Solving for p, Initial residual = 4.38461e-08, Final residual = 4.38461e-08, No Iterations 0
time step continuity errors : sum local = 3.48583e-10, global = 7.26899e-13, cumulative = 0.000213892
smoothSolver:  Solving for epsilon, Initial residual = 7.87472e-06, Final residual = 7.87472e-06, No Iterations 0
smoothSolver:  Solving for k, Initial residual = 9.83456e-06, Final residual = 9.83456e-06, No Iterations 0
ExecutionTime = 54.17 s  ClockTime = 55 s

Courant Number mean: 0.950816 max: 3.08678
Time = 996.25

PIMPLE: iteration 1
smoothSolver:  Solving for Ux, Initial residual = 5.27706e-10, Final residual = 5.27706e-10, No Iterations 0
smoothSolver:  Solving for Uy, Initial residual = 1.61269e-09, Final residual = 1.61269e-09, No Iterations 0
GAMG:  Solving for p, Initial residual = 1.08103e-07, Final residual = 1.77701e-09, No Iterations 1
time step continuity errors : sum local = 1.41275e-11, global = -4.69078e-13, cumulative = 0.000213892
GAMG:  Solving for p, Initial residual = 4.10716e-08, Final residual = 4.10716e-08, No Iterations 0
time step continuity errors : sum local = 3.26525e-10, global = -2.04917e-12, cumulative = 0.000213892
smoothSolver:  Solving for epsilon, Initial residual = 7.87478e-06, Final residual = 7.87478e-06, No Iterations 0
smoothSolver:  Solving for k, Initial residual = 9.83458e-06, Final residual = 9.83458e-06, No Iterations 0
ExecutionTime = 54.19 s  ClockTime = 55 s

Courant Number mean: 0.950816 max: 3.08678
Time = 996.5

PIMPLE: iteration 1
smoothSolver:  Solving for Ux, Initial residual = 5.08168e-10, Final residual = 5.08168e-10, No Iterations 0
smoothSolver:  Solving for Uy, Initial residual = 1.43719e-09, Final residual = 1.43719e-09, No Iterations 0
GAMG:  Solving for p, Initial residual = 9.91676e-08, Final residual = 9.91676e-08, No Iterations 0
time step continuity errors : sum local = 7.88396e-10, global = 2.97529e-12, cumulative = 0.000213892
GAMG:  Solving for p, Initial residual = 1.22474e-07, Final residual = 2.72561e-09, No Iterations 1
time step continuity errors : sum local = 2.1669e-11, global = 6.99825e-13, cumulative = 0.000213892
smoothSolver:  Solving for epsilon, Initial residual = 7.87474e-06, Final residual = 7.87474e-06, No Iterations 0
smoothSolver:  Solving for k, Initial residual = 9.83458e-06, Final residual = 9.83458e-06, No Iterations 0
ExecutionTime = 54.19 s  ClockTime = 55 s

Courant Number mean: 0.950816 max: 3.08678
Time = 996.75

PIMPLE: iteration 1
smoothSolver:  Solving for Ux, Initial residual = 3.59173e-10, Final residual = 3.59173e-10, No Iterations 0
smoothSolver:  Solving for Uy, Initial residual = 2.51294e-09, Final residual = 2.51294e-09, No Iterations 0
GAMG:  Solving for p, Initial residual = 9.74716e-08, Final residual = 9.74716e-08, No Iterations 0
time step continuity errors : sum local = 7.74913e-10, global = -4.34759e-12, cumulative = 0.000213892
GAMG:  Solving for p, Initial residual = 1.39367e-07, Final residual = 2.73498e-09, No Iterations 1
time step continuity errors : sum local = 2.17435e-11, global = -1.38972e-13, cumulative = 0.000213892
smoothSolver:  Solving for epsilon, Initial residual = 7.87477e-06, Final residual = 7.87477e-06, No Iterations 0
smoothSolver:  Solving for k, Initial residual = 9.83458e-06, Final residual = 9.83458e-06, No Iterations 0
ExecutionTime = 54.2 s  ClockTime = 55 s

Courant Number mean: 0.950816 max: 3.08678
Time = 997

PIMPLE: iteration 1
smoothSolver:  Solving for Ux, Initial residual = 1.77396e-10, Final residual = 1.77396e-10, No Iterations 0
smoothSolver:  Solving for Uy, Initial residual = 2.28538e-09, Final residual = 2.28538e-09, No Iterations 0
GAMG:  Solving for p, Initial residual = 7.74087e-08, Final residual = 7.74087e-08, No Iterations 0
time step continuity errors : sum local = 6.1541e-10, global = 4.79771e-13, cumulative = 0.000213892
GAMG:  Solving for p, Initial residual = 1.08091e-07, Final residual = 1.5362e-09, No Iterations 1
time step continuity errors : sum local = 1.2213e-11, global = 6.70439e-13, cumulative = 0.000213892
smoothSolver:  Solving for epsilon, Initial residual = 7.87477e-06, Final residual = 7.87477e-06, No Iterations 0
smoothSolver:  Solving for k, Initial residual = 9.83458e-06, Final residual = 9.83458e-06, No Iterations 0
ExecutionTime = 54.2 s  ClockTime = 55 s

Courant Number mean: 0.950816 max: 3.08678
Time = 997.25

PIMPLE: iteration 1
smoothSolver:  Solving for Ux, Initial residual = 2.084e-10, Final residual = 2.084e-10, No Iterations 0
smoothSolver:  Solving for Uy, Initial residual = 1.41958e-09, Final residual = 1.41958e-09, No Iterations 0
GAMG:  Solving for p, Initial residual = 5.93838e-08, Final residual = 5.93838e-08, No Iterations 0
time step continuity errors : sum local = 4.7211e-10, global = 3.06774e-12, cumulative = 0.000213892
GAMG:  Solving for p, Initial residual = 8.38929e-08, Final residual = 8.38929e-08, No Iterations 0
time step continuity errors : sum local = 6.6696e-10, global = 4.29354e-12, cumulative = 0.000213892
smoothSolver:  Solving for epsilon, Initial residual = 7.8748e-06, Final residual = 7.8748e-06, No Iterations 0
smoothSolver:  Solving for k, Initial residual = 9.83461e-06, Final residual = 9.83461e-06, No Iterations 0
ExecutionTime = 54.22 s  ClockTime = 55 s

Courant Number mean: 0.950816 max: 3.08678
Time = 997.5

PIMPLE: iteration 1
smoothSolver:  Solving for Ux, Initial residual = 7.80729e-10, Final residual = 7.80729e-10, No Iterations 0
smoothSolver:  Solving for Uy, Initial residual = 1.34674e-09, Final residual = 1.34674e-09, No Iterations 0
GAMG:  Solving for p, Initial residual = 1.30465e-07, Final residual = 2.11651e-09, No Iterations 1
time step continuity errors : sum local = 1.68266e-11, global = 8.21507e-13, cumulative = 0.000213892
GAMG:  Solving for p, Initial residual = 6.55149e-08, Final residual = 6.55149e-08, No Iterations 0
time step continuity errors : sum local = 5.20852e-10, global = 2.44159e-12, cumulative = 0.000213892
smoothSolver:  Solving for epsilon, Initial residual = 7.8747e-06, Final residual = 7.8747e-06, No Iterations 0
smoothSolver:  Solving for k, Initial residual = 9.83457e-06, Final residual = 9.83457e-06, No Iterations 0
ExecutionTime = 54.22 s  ClockTime = 55 s

Courant Number mean: 0.950816 max: 3.08678
Time = 997.75

PIMPLE: iteration 1
smoothSolver:  Solving for Ux, Initial residual = 9.31059e-10, Final residual = 9.31059e-10, No Iterations 0
smoothSolver:  Solving for Uy, Initial residual = 2.12762e-09, Final residual = 2.12762e-09, No Iterations 0
GAMG:  Solving for p, Initial residual = 1.72112e-07, Final residual = 3.05472e-09, No Iterations 1
time step continuity errors : sum local = 2.42855e-11, global = -1.56651e-12, cumulative = 0.000213892
GAMG:  Solving for p, Initial residual = 6.26466e-08, Final residual = 6.26466e-08, No Iterations 0
time step continuity errors : sum local = 4.98049e-10, global = -5.09153e-12, cumulative = 0.000213892
smoothSolver:  Solving for epsilon, Initial residual = 7.87482e-06, Final residual = 7.87482e-06, No Iterations 0
smoothSolver:  Solving for k, Initial residual = 9.83459e-06, Final residual = 9.83459e-06, No Iterations 0
ExecutionTime = 54.23 s  ClockTime = 55 s

Courant Number mean: 0.950816 max: 3.08678
Time = 998

PIMPLE: iteration 1
smoothSolver:  Solving for Ux, Initial residual = 6.52621e-10, Final residual = 6.52621e-10, No Iterations 0
smoothSolver:  Solving for Uy, Initial residual = 2.5876e-09, Final residual = 2.5876e-09, No Iterations 0
GAMG:  Solving for p, Initial residual = 1.47012e-07, Final residual = 3.0073e-09, No Iterations 1
time step continuity errors : sum local = 2.39084e-11, global = 1.48861e-12, cumulative = 0.000213892
GAMG:  Solving for p, Initial residual = 5.5473e-08, Final residual = 5.5473e-08, No Iterations 0
time step continuity errors : sum local = 4.41018e-10, global = 3.73266e-12, cumulative = 0.000213892
smoothSolver:  Solving for epsilon, Initial residual = 7.87475e-06, Final residual = 7.87475e-06, No Iterations 0
smoothSolver:  Solving for k, Initial residual = 9.83458e-06, Final residual = 9.83458e-06, No Iterations 0
ExecutionTime = 54.23 s  ClockTime = 55 s

Courant Number mean: 0.950816 max: 3.08678
Time = 998.25

PIMPLE: iteration 1
smoothSolver:  Solving for Ux, Initial residual = 7.65843e-10, Final residual = 7.65843e-10, No Iterations 0
smoothSolver:  Solving for Uy, Initial residual = 1.72552e-09, Final residual = 1.72552e-09, No Iterations 0
GAMG:  Solving for p, Initial residual = 1.3578e-07, Final residual = 2.67583e-09, No Iterations 1
time step continuity errors : sum local = 2.12732e-11, global = -1.44969e-12, cumulative = 0.000213892
GAMG:  Solving for p, Initial residual = 5.21658e-08, Final residual = 5.21658e-08, No Iterations 0
time step continuity errors : sum local = 4.14725e-10, global = -4.55049e-12, cumulative = 0.000213892
smoothSolver:  Solving for epsilon, Initial residual = 7.87477e-06, Final residual = 7.87477e-06, No Iterations 0
smoothSolver:  Solving for k, Initial residual = 9.83457e-06, Final residual = 9.83457e-06, No Iterations 0
ExecutionTime = 54.25 s  ClockTime = 55 s

Courant Number mean: 0.950816 max: 3.08678
Time = 998.5

PIMPLE: iteration 1
smoothSolver:  Solving for Ux, Initial residual = 5.42962e-10, Final residual = 5.42962e-10, No Iterations 0
smoothSolver:  Solving for Uy, Initial residual = 2.03435e-09, Final residual = 2.03435e-09, No Iterations 0
GAMG:  Solving for p, Initial residual = 1.25294e-07, Final residual = 2.23622e-09, No Iterations 1
time step continuity errors : sum local = 1.77783e-11, global = 6.8325e-13, cumulative = 0.000213892
GAMG:  Solving for p, Initial residual = 4.7018e-08, Final residual = 4.7018e-08, No Iterations 0
time step continuity errors : sum local = 3.738e-10, global = 1.73492e-12, cumulative = 0.000213892
smoothSolver:  Solving for epsilon, Initial residual = 7.87479e-06, Final residual = 7.87479e-06, No Iterations 0
smoothSolver:  Solving for k, Initial residual = 9.83459e-06, Final residual = 9.83459e-06, No Iterations 0
ExecutionTime = 54.25 s  ClockTime = 55 s

Courant Number mean: 0.950816 max: 3.08678
Time = 998.75

PIMPLE: iteration 1
smoothSolver:  Solving for Ux, Initial residual = 6.15906e-10, Final residual = 6.15906e-10, No Iterations 0
smoothSolver:  Solving for Uy, Initial residual = 1.59907e-09, Final residual = 1.59907e-09, No Iterations 0
GAMG:  Solving for p, Initial residual = 1.14864e-07, Final residual = 1.60704e-09, No Iterations 1
time step continuity errors : sum local = 1.27762e-11, global = -4.51985e-13, cumulative = 0.000213892
GAMG:  Solving for p, Initial residual = 4.38469e-08, Final residual = 4.38469e-08, No Iterations 0
time step continuity errors : sum local = 3.48589e-10, global = 9.74831e-14, cumulative = 0.000213892
smoothSolver:  Solving for epsilon, Initial residual = 7.87474e-06, Final residual = 7.87474e-06, No Iterations 0
smoothSolver:  Solving for k, Initial residual = 9.83457e-06, Final residual = 9.83457e-06, No Iterations 0
ExecutionTime = 54.27 s  ClockTime = 55 s

Courant Number mean: 0.950816 max: 3.08678
Time = 999

PIMPLE: iteration 1
smoothSolver:  Solving for Ux, Initial residual = 4.90947e-10, Final residual = 4.90947e-10, No Iterations 0
smoothSolver:  Solving for Uy, Initial residual = 1.59573e-09, Final residual = 1.59573e-09, No Iterations 0
GAMG:  Solving for p, Initial residual = 1.07508e-07, Final residual = 1.6091e-09, No Iterations 1
time step continuity errors : sum local = 1.27925e-11, global = -5.56913e-13, cumulative = 0.000213892
GAMG:  Solving for p, Initial residual = 4.02605e-08, Final residual = 4.02605e-08, No Iterations 0
time step continuity errors : sum local = 3.20076e-10, global = -1.39075e-12, cumulative = 0.000213892
smoothSolver:  Solving for epsilon, Initial residual = 7.8748e-06, Final residual = 7.8748e-06, No Iterations 0
smoothSolver:  Solving for k, Initial residual = 9.83459e-06, Final residual = 9.83459e-06, No Iterations 0
ExecutionTime = 54.27 s  ClockTime = 55 s

Courant Number mean: 0.950816 max: 3.08678
Time = 999.25

PIMPLE: iteration 1
smoothSolver:  Solving for Ux, Initial residual = 5.11386e-10, Final residual = 5.11386e-10, No Iterations 0
smoothSolver:  Solving for Uy, Initial residual = 1.45601e-09, Final residual = 1.45601e-09, No Iterations 0
GAMG:  Solving for p, Initial residual = 9.8747e-08, Final residual = 9.8747e-08, No Iterations 0
time step continuity errors : sum local = 7.85053e-10, global = 1.72988e-12, cumulative = 0.000213892
GAMG:  Solving for p, Initial residual = 1.22071e-07, Final residual = 2.51546e-09, No Iterations 1
time step continuity errors : sum local = 1.99982e-11, global = 1.36103e-13, cumulative = 0.000213892
smoothSolver:  Solving for epsilon, Initial residual = 7.87475e-06, Final residual = 7.87475e-06, No Iterations 0
smoothSolver:  Solving for k, Initial residual = 9.83458e-06, Final residual = 9.83458e-06, No Iterations 0
ExecutionTime = 54.28 s  ClockTime = 55 s

Courant Number mean: 0.950816 max: 3.08678
Time = 999.5

PIMPLE: iteration 1
smoothSolver:  Solving for Ux, Initial residual = 3.63926e-10, Final residual = 3.63926e-10, No Iterations 0
smoothSolver:  Solving for Uy, Initial residual = 2.4187e-09, Final residual = 2.4187e-09, No Iterations 0
GAMG:  Solving for p, Initial residual = 9.48806e-08, Final residual = 9.48806e-08, No Iterations 0
time step continuity errors : sum local = 7.54314e-10, global = -5.09414e-12, cumulative = 0.000213892
GAMG:  Solving for p, Initial residual = 1.36435e-07, Final residual = 2.78454e-09, No Iterations 1
time step continuity errors : sum local = 2.21375e-11, global = 2.78748e-14, cumulative = 0.000213892
smoothSolver:  Solving for epsilon, Initial residual = 7.87477e-06, Final residual = 7.87477e-06, No Iterations 0
smoothSolver:  Solving for k, Initial residual = 9.83458e-06, Final residual = 9.83458e-06, No Iterations 0
ExecutionTime = 54.28 s  ClockTime = 55 s

Courant Number mean: 0.950816 max: 3.08678
Time = 999.75

PIMPLE: iteration 1
smoothSolver:  Solving for Ux, Initial residual = 1.55106e-10, Final residual = 1.55106e-10, No Iterations 0
smoothSolver:  Solving for Uy, Initial residual = 2.28773e-09, Final residual = 2.28773e-09, No Iterations 0
GAMG:  Solving for p, Initial residual = 7.5056e-08, Final residual = 7.5056e-08, No Iterations 0
time step continuity errors : sum local = 5.96705e-10, global = 2.12476e-12, cumulative = 0.000213892
GAMG:  Solving for p, Initial residual = 1.06957e-07, Final residual = 1.63889e-09, No Iterations 1
time step continuity errors : sum local = 1.30294e-11, global = 3.2225e-13, cumulative = 0.000213892
smoothSolver:  Solving for epsilon, Initial residual = 7.87477e-06, Final residual = 7.87477e-06, No Iterations 0
smoothSolver:  Solving for k, Initial residual = 9.83458e-06, Final residual = 9.83458e-06, No Iterations 0
ExecutionTime = 54.3 s  ClockTime = 55 s

Courant Number mean: 0.950816 max: 3.08678
Time = 1000

PIMPLE: iteration 1
smoothSolver:  Solving for Ux, Initial residual = 2.15924e-10, Final residual = 2.15924e-10, No Iterations 0
smoothSolver:  Solving for Uy, Initial residual = 1.34285e-09, Final residual = 1.34285e-09, No Iterations 0
GAMG:  Solving for p, Initial residual = 5.81299e-08, Final residual = 5.81299e-08, No Iterations 0
time step continuity errors : sum local = 4.6214e-10, global = 1.3303e-12, cumulative = 0.000213892
GAMG:  Solving for p, Initial residual = 8.08719e-08, Final residual = 8.08719e-08, No Iterations 0
time step continuity errors : sum local = 6.42943e-10, global = 2.08075e-12, cumulative = 0.000213892
smoothSolver:  Solving for epsilon, Initial residual = 7.87479e-06, Final residual = 7.87479e-06, No Iterations 0
smoothSolver:  Solving for k, Initial residual = 9.83461e-06, Final residual = 9.83461e-06, No Iterations 0
ExecutionTime = 54.33 s  ClockTime = 55 s

End

