/*---------------------------------------------------------------------------*\
| =========                 |                                                 |
| \\      /  F ield         | OpenFOAM: The Open Source CFD Toolbox           |
|  \\    /   O peration     | Version:  v1912                                 |
|   \\  /    A nd           | Website:  www.openfoam.com                      |
|    \\/     M anipulation  |                                                 |
\*---------------------------------------------------------------------------*/
Build  : _f3950763fe-20191219 OPENFOAM=1912
Arch   : "LSB;label=32;scalar=64"
Exec   : simpleFoam
Date   : Jun 29 2020
Time   : 23:15:07
Host   : DESKTOP-7S8DQ3L
PID    : 1172
I/O    : uncollated
Case   : /home/logankp/OpenFOAM/logankp-v1912/run/CFD/Final_Case/Initial_SparseGrid
nProcs : 1
trapFpe: Floating point exception trapping enabled (FOAM_SIGFPE).
fileModificationChecking : Monitoring run-time modified files using timeStampMaster (fileModificationSkew 10)
allowSystemOperations : Allowing user-supplied system call operations

// * * * * * * * * * * * * * * * * * * * * * * * * * * * * * * * * * * * * * //
Create time

Create mesh for time = 0


SIMPLE: convergence criteria
    field p	 tolerance 1e-06
    field U	 tolerance 1e-06
    field "(k|epsilon|omega|nuTilda|f|v2)"	 tolerance 1e-06

Reading field p

Reading field U

Reading/calculating face flux field phi

Selecting incompressible transport model Newtonian
Selecting turbulence model type laminar
Selecting laminar stress model Stokes
No MRF models present

No finite volume options present

Starting time loop

forceCoeffs forceCoeffs:
    rho: rhoInf
    Freestream density (rhoInf) set to 1.225
    Not including porosity effects

Time = 1

smoothSolver:  Solving for Ux, Initial residual = 1, Final residual = 0.0740916, No Iterations 5
smoothSolver:  Solving for Uy, Initial residual = 1, Final residual = 0.0628416, No Iterations 3
GAMG:  Solving for p, Initial residual = 1, Final residual = 0.0835741, No Iterations 6
time step continuity errors : sum local = 0.0641559, global = 0.00115983, cumulative = 0.00115983
ExecutionTime = 0.07 s  ClockTime = 0 s

forceCoeffs forceCoeffs execute:
    Coefficients
        Cd       : -6.72084e-05	(pressure: -8.39187e-05	viscous: 1.67103e-05)
        Cs       : -8.19977e-20	(pressure: -9.63612e-20	viscous: 1.43635e-20)
        Cl       : -0.000480537	(pressure: -0.000490794	viscous: 1.02575e-05)
        CmRoll       : 2.40268e-09	(pressure: 2.45397e-09	viscous: -5.12875e-11)
        CmPitch       : 2.45329e-06	(pressure: 2.48872e-06	viscous: -3.5426e-08)
        CmYaw       : -3.36042e-10	(pressure: -4.19593e-10	viscous: 8.35513e-11)
        Cd(f)    : -3.36018e-05
        Cd(r)    : -3.36066e-05
        Cs(f)    : -3.36042e-10
        Cs(r)    : 3.36042e-10
        Cl(f)    : -0.000237815
        Cl(r)    : -0.000242722
Time = 2

smoothSolver:  Solving for Ux, Initial residual = 0.449901, Final residual = 0.0369351, No Iterations 6
smoothSolver:  Solving for Uy, Initial residual = 0.596374, Final residual = 0.0556194, No Iterations 2
GAMG:  Solving for p, Initial residual = 0.147862, Final residual = 0.0122401, No Iterations 5
time step continuity errors : sum local = 0.145085, global = -0.0204129, cumulative = -0.0192531
ExecutionTime = 0.07 s  ClockTime = 0 s

forceCoeffs forceCoeffs execute:
    Coefficients
        Cd       : -0.000239609	(pressure: -0.000208784	viscous: -3.0825e-05)
        Cs       : -2.10201e-19	(pressure: -1.89298e-19	viscous: -2.09025e-20)
        Cl       : -0.000962372	(pressure: -0.000984751	viscous: 2.2379e-05)
        CmRoll       : 4.81186e-09	(pressure: 4.92375e-09	viscous: -1.11895e-10)
        CmPitch       : 5.40472e-06	(pressure: 5.58569e-06	viscous: -1.80966e-07)
        CmYaw       : -1.19804e-09	(pressure: -1.04392e-09	viscous: -1.54125e-10)
        Cd(f)    : -0.0001198
        Cd(r)    : -0.000119809
        Cs(f)    : -1.19804e-09
        Cs(r)    : 1.19804e-09
        Cl(f)    : -0.000475781
        Cl(r)    : -0.000486591
Time = 3

smoothSolver:  Solving for Ux, Initial residual = 0.364782, Final residual = 0.029612, No Iterations 6
smoothSolver:  Solving for Uy, Initial residual = 0.426248, Final residual = 0.040246, No Iterations 5
GAMG:  Solving for p, Initial residual = 0.237278, Final residual = 0.0203427, No Iterations 4
time step continuity errors : sum local = 0.18782, global = 0.0223516, cumulative = 0.00309852
ExecutionTime = 0.08 s  ClockTime = 0 s

forceCoeffs forceCoeffs execute:
    Coefficients
        Cd       : 6.40964e-05	(pressure: 6.85334e-05	viscous: -4.43703e-06)
        Cs       : 1.80909e-21	(pressure: 2.57427e-20	viscous: -2.39336e-20)
        Cl       : -0.00048531	(pressure: -0.000505957	viscous: 2.06465e-05)
        CmRoll       : 2.42655e-09	(pressure: 2.52978e-09	viscous: -1.03233e-10)
        CmPitch       : 1.8787e-06	(pressure: 2.01182e-06	viscous: -1.33123e-07)
        CmYaw       : 3.20482e-10	(pressure: 3.42667e-10	viscous: -2.21852e-11)
        Cd(f)    : 3.20506e-05
        Cd(r)    : 3.20458e-05
        Cs(f)    : 3.20482e-10
        Cs(r)    : -3.20482e-10
        Cl(f)    : -0.000240776
        Cl(r)    : -0.000244534
Time = 4

smoothSolver:  Solving for Ux, Initial residual = 0.208978, Final residual = 0.0147205, No Iterations 6
smoothSolver:  Solving for Uy, Initial residual = 0.278786, Final residual = 0.0220228, No Iterations 5
GAMG:  Solving for p, Initial residual = 0.140653, Final residual = 0.00918276, No Iterations 4
time step continuity errors : sum local = 0.152383, global = -0.000917911, cumulative = 0.00218061
ExecutionTime = 0.08 s  ClockTime = 0 s

forceCoeffs forceCoeffs execute:
    Coefficients
        Cd       : 0.000188932	(pressure: 0.000159794	viscous: 2.91378e-05)
        Cs       : 1.30829e-19	(pressure: 1.37683e-19	viscous: -6.85471e-21)
        Cl       : 8.44836e-05	(pressure: 6.47135e-05	viscous: 1.97702e-05)
        CmRoll       : -4.22418e-10	(pressure: -3.23567e-10	viscous: -9.88508e-11)
        CmPitch       : -1.46268e-06	(pressure: -1.37757e-06	viscous: -8.51121e-08)
        CmYaw       : 9.44661e-10	(pressure: 7.98971e-10	viscous: 1.45689e-10)
        Cd(f)    : 9.44656e-05
        Cd(r)    : 9.44665e-05
        Cs(f)    : 9.44661e-10
        Cs(r)    : -9.44661e-10
        Cl(f)    : 4.07791e-05
        Cl(r)    : 4.37045e-05
Time = 5

smoothSolver:  Solving for Ux, Initial residual = 0.180614, Final residual = 0.01511, No Iterations 4
smoothSolver:  Solving for Uy, Initial residual = 0.211869, Final residual = 0.0164998, No Iterations 3
GAMG:  Solving for p, Initial residual = 0.0632885, Final residual = 0.00443715, No Iterations 4
time step continuity errors : sum local = 0.0813242, global = 0.0013651, cumulative = 0.00354572
ExecutionTime = 0.08 s  ClockTime = 0 s

forceCoeffs forceCoeffs execute:
    Coefficients
        Cd       : 0.000163805	(pressure: 0.000133937	viscous: 2.98677e-05)
        Cs       : 1.25742e-19	(pressure: 1.30825e-19	viscous: -5.08221e-21)
        Cl       : 0.000128553	(pressure: 0.000120472	viscous: 8.08116e-06)
        CmRoll       : -6.42765e-10	(pressure: -6.02359e-10	viscous: -4.04058e-11)
        CmPitch       : -1.36174e-06	(pressure: -1.37634e-06	viscous: 1.46027e-08)
        CmYaw       : 8.19023e-10	(pressure: 6.69684e-10	viscous: 1.49338e-10)
        Cd(f)    : 8.19016e-05
        Cd(r)    : 8.19029e-05
        Cs(f)    : 8.19023e-10
        Cs(r)    : -8.19023e-10
        Cl(f)    : 6.29148e-05
        Cl(r)    : 6.56382e-05
Time = 6

smoothSolver:  Solving for Ux, Initial residual = 0.140184, Final residual = 0.0120127, No Iterations 4
smoothSolver:  Solving for Uy, Initial residual = 0.187905, Final residual = 0.0166199, No Iterations 3
GAMG:  Solving for p, Initial residual = 0.0524244, Final residual = 0.00421456, No Iterations 4
time step continuity errors : sum local = 0.0911213, global = -0.00638999, cumulative = -0.00284427
ExecutionTime = 0.1 s  ClockTime = 0 s

forceCoeffs forceCoeffs execute:
    Coefficients
        Cd       : 0.000152871	(pressure: 0.000121299	viscous: 3.15727e-05)
        Cs       : 1.22384e-19	(pressure: 1.26467e-19	viscous: -4.08279e-21)
        Cl       : 0.000195056	(pressure: 0.000191795	viscous: 3.26101e-06)
        CmRoll       : -9.75278e-10	(pressure: -9.58973e-10	viscous: -1.6305e-11)
        CmPitch       : -1.43592e-06	(pressure: -1.49969e-06	viscous: 6.37671e-08)
        CmYaw       : 7.64356e-10	(pressure: 6.06493e-10	viscous: 1.57863e-10)
        Cd(f)    : 7.64346e-05
        Cd(r)    : 7.64366e-05
        Cs(f)    : 7.64356e-10
        Cs(r)    : -7.64356e-10
        Cl(f)    : 9.60919e-05
        Cl(r)    : 9.89637e-05
Time = 7

smoothSolver:  Solving for Ux, Initial residual = 0.104688, Final residual = 0.00857793, No Iterations 4
smoothSolver:  Solving for Uy, Initial residual = 0.170931, Final residual = 0.0160456, No Iterations 2
GAMG:  Solving for p, Initial residual = 0.0367192, Final residual = 0.00197533, No Iterations 4
time step continuity errors : sum local = 0.0473482, global = -0.00690401, cumulative = -0.00974828
ExecutionTime = 0.1 s  ClockTime = 0 s

forceCoeffs forceCoeffs execute:
    Coefficients
        Cd       : 0.000126894	(pressure: 9.74515e-05	viscous: 2.94426e-05)
        Cs       : 1.13125e-19	(pressure: 1.12306e-19	viscous: 8.18691e-22)
        Cl       : 0.000232758	(pressure: 0.000232701	viscous: 5.7653e-08)
        CmRoll       : -1.16379e-09	(pressure: -1.1635e-09	viscous: -2.88265e-13)
        CmPitch       : -1.39863e-06	(pressure: -1.49064e-06	viscous: 9.20123e-08)
        CmYaw       : 6.3447e-10	(pressure: 4.87257e-10	viscous: 1.47213e-10)
        Cd(f)    : 6.34459e-05
        Cd(r)    : 6.34482e-05
        Cs(f)    : 6.3447e-10
        Cs(r)    : -6.3447e-10
        Cl(f)    : 0.00011498
        Cl(r)    : 0.000117778
Time = 8

smoothSolver:  Solving for Ux, Initial residual = 0.105995, Final residual = 0.00820243, No Iterations 4
smoothSolver:  Solving for Uy, Initial residual = 0.181659, Final residual = 0.0175223, No Iterations 2
GAMG:  Solving for p, Initial residual = 0.0330966, Final residual = 0.00171845, No Iterations 4
time step continuity errors : sum local = 0.0424869, global = -0.00617022, cumulative = -0.0159185
ExecutionTime = 0.1 s  ClockTime = 0 s

forceCoeffs forceCoeffs execute:
    Coefficients
        Cd       : 9.96125e-05	(pressure: 7.37043e-05	viscous: 2.59082e-05)
        Cs       : 9.70673e-20	(pressure: 9.52258e-20	viscous: 1.84154e-21)
        Cl       : 0.000240244	(pressure: 0.000239897	viscous: 3.4717e-07)
        CmRoll       : -1.20122e-09	(pressure: -1.19948e-09	viscous: -1.73585e-12)
        CmPitch       : -1.25847e-06	(pressure: -1.34438e-06	viscous: 8.59092e-08)
        CmYaw       : 4.98062e-10	(pressure: 3.68521e-10	viscous: 1.29541e-10)
        Cd(f)    : 4.9805e-05
        Cd(r)    : 4.98075e-05
        Cs(f)    : 4.98062e-10
        Cs(r)    : -4.98062e-10
        Cl(f)    : 0.000118863
        Cl(r)    : 0.00012138
Time = 9

smoothSolver:  Solving for Ux, Initial residual = 0.111634, Final residual = 0.00906671, No Iterations 4
smoothSolver:  Solving for Uy, Initial residual = 0.174503, Final residual = 0.0127563, No Iterations 3
GAMG:  Solving for p, Initial residual = 0.0372189, Final residual = 0.00288945, No Iterations 3
time step continuity errors : sum local = 0.0696542, global = 0.00588461, cumulative = -0.0100339
ExecutionTime = 0.1 s  ClockTime = 0 s

forceCoeffs forceCoeffs execute:
    Coefficients
        Cd       : 8.35723e-05	(pressure: 6.03307e-05	viscous: 2.32415e-05)
        Cs       : 8.45861e-20	(pressure: 8.38867e-20	viscous: 6.99403e-22)
        Cl       : 0.000246348	(pressure: 0.000246412	viscous: -6.46787e-08)
        CmRoll       : -1.23174e-09	(pressure: -1.23206e-09	viscous: 3.23393e-13)
        CmPitch       : -1.17332e-06	(pressure: -1.25929e-06	viscous: 8.59723e-08)
        CmYaw       : 4.17861e-10	(pressure: 3.01654e-10	viscous: 1.16208e-10)
        Cd(f)    : 4.17849e-05
        Cd(r)    : 4.17874e-05
        Cs(f)    : 4.17861e-10
        Cs(r)    : -4.17861e-10
        Cl(f)    : 0.000122001
        Cl(r)    : 0.000124347
Time = 10

smoothSolver:  Solving for Ux, Initial residual = 0.119978, Final residual = 0.00913071, No Iterations 4
smoothSolver:  Solving for Uy, Initial residual = 0.170702, Final residual = 0.0149571, No Iterations 3
GAMG:  Solving for p, Initial residual = 0.0422401, Final residual = 0.00272544, No Iterations 3
time step continuity errors : sum local = 0.0599538, global = -0.00231049, cumulative = -0.0123444
ExecutionTime = 0.12 s  ClockTime = 0 s

forceCoeffs forceCoeffs execute:
    Coefficients
        Cd       : 7.35201e-05	(pressure: 5.31626e-05	viscous: 2.03575e-05)
        Cs       : 7.24146e-20	(pressure: 7.45955e-20	viscous: -2.18088e-21)
        Cl       : 0.000241886	(pressure: 0.000241145	viscous: 7.40327e-07)
        CmRoll       : -1.20943e-09	(pressure: -1.20573e-09	viscous: -3.70163e-12)
        CmPitch       : -1.0762e-06	(pressure: -1.15155e-06	viscous: 7.53497e-08)
        CmYaw       : 3.67601e-10	(pressure: 2.65813e-10	viscous: 1.01787e-10)
        Cd(f)    : 3.67588e-05
        Cd(r)    : 3.67613e-05
        Cs(f)    : 3.67601e-10
        Cs(r)    : -3.67601e-10
        Cl(f)    : 0.000119867
        Cl(r)    : 0.000122019
Time = 11

smoothSolver:  Solving for Ux, Initial residual = 0.122927, Final residual = 0.0101184, No Iterations 4
smoothSolver:  Solving for Uy, Initial residual = 0.171325, Final residual = 0.0153099, No Iterations 3
GAMG:  Solving for p, Initial residual = 0.0501565, Final residual = 0.00344403, No Iterations 3
time step continuity errors : sum local = 0.0630628, global = -0.00404151, cumulative = -0.0163859
ExecutionTime = 0.12 s  ClockTime = 0 s

forceCoeffs forceCoeffs execute:
    Coefficients
        Cd       : 7.02533e-05	(pressure: 5.24134e-05	viscous: 1.78399e-05)
        Cs       : 6.38225e-20	(pressure: 6.9619e-20	viscous: -5.79649e-21)
        Cl       : 0.000241392	(pressure: 0.000239047	viscous: 2.34523e-06)
        CmRoll       : -1.20696e-09	(pressure: -1.19523e-09	viscous: -1.17262e-11)
        CmPitch       : -1.04445e-06	(pressure: -1.1027e-06	viscous: 5.82492e-08)
        CmYaw       : 3.51267e-10	(pressure: 2.62067e-10	viscous: 8.91994e-11)
        Cd(f)    : 3.51254e-05
        Cd(r)    : 3.51279e-05
        Cs(f)    : 3.51267e-10
        Cs(r)    : -3.51267e-10
        Cl(f)    : 0.000119652
        Cl(r)    : 0.00012174
Time = 12

smoothSolver:  Solving for Ux, Initial residual = 0.122583, Final residual = 0.0116056, No Iterations 3
smoothSolver:  Solving for Uy, Initial residual = 0.179444, Final residual = 0.0152219, No Iterations 3
GAMG:  Solving for p, Initial residual = 0.0535909, Final residual = 0.00365447, No Iterations 3
time step continuity errors : sum local = 0.0594691, global = -0.00401946, cumulative = -0.0204053
ExecutionTime = 0.12 s  ClockTime = 0 s

forceCoeffs forceCoeffs execute:
    Coefficients
        Cd       : 7.19378e-05	(pressure: 5.54877e-05	viscous: 1.64501e-05)
        Cs       : 5.86002e-20	(pressure: 6.5735e-20	viscous: -7.13482e-21)
        Cl       : 0.000241932	(pressure: 0.000238211	viscous: 3.72077e-06)
        CmRoll       : -1.20966e-09	(pressure: -1.19106e-09	viscous: -1.86039e-11)
        CmPitch       : -1.03616e-06	(pressure: -1.08053e-06	viscous: 4.4361e-08)
        CmYaw       : 3.59689e-10	(pressure: 2.77438e-10	viscous: 8.22505e-11)
        Cd(f)    : 3.59677e-05
        Cd(r)    : 3.59701e-05
        Cs(f)    : 3.59689e-10
        Cs(r)    : -3.59689e-10
        Cl(f)    : 0.00011993
        Cl(r)    : 0.000122002
Time = 13

smoothSolver:  Solving for Ux, Initial residual = 0.115476, Final residual = 0.0105859, No Iterations 3
smoothSolver:  Solving for Uy, Initial residual = 0.173807, Final residual = 0.0143007, No Iterations 3
GAMG:  Solving for p, Initial residual = 0.0550047, Final residual = 0.00409067, No Iterations 3
time step continuity errors : sum local = 0.0589952, global = -0.00266911, cumulative = -0.0230745
ExecutionTime = 0.12 s  ClockTime = 0 s

forceCoeffs forceCoeffs execute:
    Coefficients
        Cd       : 7.92285e-05	(pressure: 6.1629e-05	viscous: 1.75995e-05)
        Cs       : 6.11413e-20	(pressure: 6.418e-20	viscous: -3.03874e-21)
        Cl       : 0.000246928	(pressure: 0.000241523	viscous: 5.40498e-06)
        CmRoll       : -1.23464e-09	(pressure: -1.20762e-09	viscous: -2.70249e-11)
        CmPitch       : -1.06426e-06	(pressure: -1.09567e-06	viscous: 3.14149e-08)
        CmYaw       : 3.96142e-10	(pressure: 3.08145e-10	viscous: 8.79974e-11)
        Cd(f)    : 3.9613e-05
        Cd(r)    : 3.96155e-05
        Cs(f)    : 3.96142e-10
        Cs(r)    : -3.96142e-10
        Cl(f)    : 0.0001224
        Cl(r)    : 0.000124528
Time = 14

smoothSolver:  Solving for Ux, Initial residual = 0.112344, Final residual = 0.0092644, No Iterations 3
smoothSolver:  Solving for Uy, Initial residual = 0.169297, Final residual = 0.0136409, No Iterations 3
GAMG:  Solving for p, Initial residual = 0.0533673, Final residual = 0.0045066, No Iterations 3
time step continuity errors : sum local = 0.0612652, global = -0.001268, cumulative = -0.0243425
ExecutionTime = 0.13 s  ClockTime = 0 s

forceCoeffs forceCoeffs execute:
    Coefficients
        Cd       : 8.46115e-05	(pressure: 6.75222e-05	viscous: 1.70893e-05)
        Cs       : 5.75465e-20	(pressure: 6.24362e-20	viscous: -4.8897e-21)
        Cl       : 0.000253517	(pressure: 0.000247493	viscous: 6.02429e-06)
        CmRoll       : -1.26759e-09	(pressure: -1.23747e-09	viscous: -3.01215e-11)
        CmPitch       : -1.10082e-06	(pressure: -1.1268e-06	viscous: 2.59865e-08)
        CmYaw       : 4.23058e-10	(pressure: 3.37611e-10	viscous: 8.54465e-11)
        Cd(f)    : 4.23045e-05
        Cd(r)    : 4.2307e-05
        Cs(f)    : 4.23058e-10
        Cs(r)    : -4.23058e-10
        Cl(f)    : 0.000125658
        Cl(r)    : 0.000127859
Time = 15

smoothSolver:  Solving for Ux, Initial residual = 0.104617, Final residual = 0.00842852, No Iterations 3
smoothSolver:  Solving for Uy, Initial residual = 0.163761, Final residual = 0.0127512, No Iterations 3
GAMG:  Solving for p, Initial residual = 0.0513195, Final residual = 0.00412058, No Iterations 3
time step continuity errors : sum local = 0.0532583, global = -0.000252114, cumulative = -0.0245946
ExecutionTime = 0.13 s  ClockTime = 0 s

forceCoeffs forceCoeffs execute:
    Coefficients
        Cd       : 9.10052e-05	(pressure: 7.29755e-05	viscous: 1.80297e-05)
        Cs       : 5.92431e-20	(pressure: 6.12049e-20	viscous: -1.96176e-21)
        Cl       : 0.000262281	(pressure: 0.000255201	viscous: 7.0798e-06)
        CmRoll       : -1.31141e-09	(pressure: -1.27601e-09	viscous: -3.5399e-11)
        CmPitch       : -1.14889e-06	(pressure: -1.16703e-06	viscous: 1.81352e-08)
        CmYaw       : 4.55026e-10	(pressure: 3.64878e-10	viscous: 9.01486e-11)
        Cd(f)    : 4.55013e-05
        Cd(r)    : 4.55039e-05
        Cs(f)    : 4.55026e-10
        Cs(r)    : -4.55026e-10
        Cl(f)    : 0.000129992
        Cl(r)    : 0.000132289
Time = 16

smoothSolver:  Solving for Ux, Initial residual = 0.0990514, Final residual = 0.00746883, No Iterations 3
smoothSolver:  Solving for Uy, Initial residual = 0.153621, Final residual = 0.0113835, No Iterations 3
GAMG:  Solving for p, Initial residual = 0.0500688, Final residual = 0.00348331, No Iterations 3
time step continuity errors : sum local = 0.0439807, global = -0.00106434, cumulative = -0.0256589
ExecutionTime = 0.13 s  ClockTime = 0 s

forceCoeffs forceCoeffs execute:
    Coefficients
        Cd       : 9.53972e-05	(pressure: 7.72533e-05	viscous: 1.81439e-05)
        Cs       : 5.62788e-20	(pressure: 5.96997e-20	viscous: -3.42088e-21)
        Cl       : 0.000269945	(pressure: 0.000262578	viscous: 7.36698e-06)
        CmRoll       : -1.34973e-09	(pressure: -1.31289e-09	viscous: -3.68349e-11)
        CmPitch       : -1.18688e-06	(pressure: -1.20306e-06	viscous: 1.61725e-08)
        CmYaw       : 4.76986e-10	(pressure: 3.86266e-10	viscous: 9.07194e-11)
        Cd(f)    : 4.76972e-05
        Cd(r)    : 4.76999e-05
        Cs(f)    : 4.76986e-10
        Cs(r)    : -4.76986e-10
        Cl(f)    : 0.000133786
        Cl(r)    : 0.00013616
Time = 17

smoothSolver:  Solving for Ux, Initial residual = 0.0939389, Final residual = 0.00660359, No Iterations 3
smoothSolver:  Solving for Uy, Initial residual = 0.144699, Final residual = 0.0107092, No Iterations 3
GAMG:  Solving for p, Initial residual = 0.0472246, Final residual = 0.00349958, No Iterations 3
time step continuity errors : sum local = 0.0435861, global = 1.61821e-05, cumulative = -0.0256427
ExecutionTime = 0.15 s  ClockTime = 0 s

forceCoeffs forceCoeffs execute:
    Coefficients
        Cd       : 9.85734e-05	(pressure: 8.00862e-05	viscous: 1.84872e-05)
        Cs       : 5.66247e-20	(pressure: 5.83134e-20	viscous: -1.68864e-21)
        Cl       : 0.000277518	(pressure: 0.000270092	viscous: 7.42606e-06)
        CmRoll       : -1.38759e-09	(pressure: -1.35046e-09	viscous: -3.71303e-11)
        CmPitch       : -1.22206e-06	(pressure: -1.23859e-06	viscous: 1.65331e-08)
        CmYaw       : 4.92867e-10	(pressure: 4.00431e-10	viscous: 9.2436e-11)
        Cd(f)    : 4.92853e-05
        Cd(r)    : 4.92881e-05
        Cs(f)    : 4.92867e-10
        Cs(r)    : -4.92867e-10
        Cl(f)    : 0.000137537
        Cl(r)    : 0.000139981
Time = 18

smoothSolver:  Solving for Ux, Initial residual = 0.0879818, Final residual = 0.00631146, No Iterations 3
smoothSolver:  Solving for Uy, Initial residual = 0.134949, Final residual = 0.00923053, No Iterations 3
GAMG:  Solving for p, Initial residual = 0.0435197, Final residual = 0.00318137, No Iterations 3
time step continuity errors : sum local = 0.0399986, global = -0.000781455, cumulative = -0.0264242
ExecutionTime = 0.15 s  ClockTime = 0 s

forceCoeffs forceCoeffs execute:
    Coefficients
        Cd       : 0.000100937	(pressure: 8.22008e-05	viscous: 1.87357e-05)
        Cs       : 5.64546e-20	(pressure: 5.75033e-20	viscous: -1.04873e-21)
        Cl       : 0.000287407	(pressure: 0.000279951	viscous: 7.45555e-06)
        CmRoll       : -1.43703e-09	(pressure: -1.39976e-09	viscous: -3.72777e-11)
        CmPitch       : -1.26963e-06	(pressure: -1.28656e-06	viscous: 1.69275e-08)
        CmYaw       : 5.04683e-10	(pressure: 4.11004e-10	viscous: 9.36785e-11)
        Cd(f)    : 5.04668e-05
        Cd(r)    : 5.04697e-05
        Cs(f)    : 5.04683e-10
        Cs(r)    : -5.04683e-10
        Cl(f)    : 0.000142434
        Cl(r)    : 0.000144973
Time = 19

smoothSolver:  Solving for Ux, Initial residual = 0.0829984, Final residual = 0.00589342, No Iterations 3
smoothSolver:  Solving for Uy, Initial residual = 0.132866, Final residual = 0.012972, No Iterations 2
GAMG:  Solving for p, Initial residual = 0.0391836, Final residual = 0.00306367, No Iterations 3
time step continuity errors : sum local = 0.0391422, global = -0.000385037, cumulative = -0.0268092
ExecutionTime = 0.15 s  ClockTime = 0 s

forceCoeffs forceCoeffs execute:
    Coefficients
        Cd       : 0.000101941	(pressure: 8.30994e-05	viscous: 1.88417e-05)
        Cs       : 5.62962e-20	(pressure: 5.6468e-20	viscous: -1.71856e-22)
        Cl       : 0.000295557	(pressure: 0.000288116	viscous: 7.44105e-06)
        CmRoll       : -1.47778e-09	(pressure: -1.44058e-09	viscous: -3.72052e-11)
        CmPitch       : -1.30711e-06	(pressure: -1.32463e-06	viscous: 1.75196e-08)
        CmYaw       : 5.09705e-10	(pressure: 4.15497e-10	viscous: 9.42083e-11)
        Cd(f)    : 5.0969e-05
        Cd(r)    : 5.0972e-05
        Cs(f)    : 5.09705e-10
        Cs(r)    : -5.09705e-10
        Cl(f)    : 0.000146471
        Cl(r)    : 0.000149085
Time = 20

smoothSolver:  Solving for Ux, Initial residual = 0.0827746, Final residual = 0.00558659, No Iterations 3
smoothSolver:  Solving for Uy, Initial residual = 0.135269, Final residual = 0.00837875, No Iterations 3
GAMG:  Solving for p, Initial residual = 0.0371358, Final residual = 0.00323412, No Iterations 3
time step continuity errors : sum local = 0.0425847, global = 0.0011565, cumulative = -0.0256527
ExecutionTime = 0.15 s  ClockTime = 0 s

forceCoeffs forceCoeffs execute:
    Coefficients
        Cd       : 0.000102204	(pressure: 8.33129e-05	viscous: 1.88913e-05)
        Cs       : 5.61189e-20	(pressure: 5.48901e-20	viscous: 1.22883e-21)
        Cl       : 0.000299424	(pressure: 0.00029194	viscous: 7.48386e-06)
        CmRoll       : -1.49712e-09	(pressure: -1.4597e-09	viscous: -3.74193e-11)
        CmPitch       : -1.32237e-06	(pressure: -1.33986e-06	viscous: 1.74919e-08)
        CmYaw       : 5.11021e-10	(pressure: 4.16565e-10	viscous: 9.44567e-11)
        Cd(f)    : 5.11006e-05
        Cd(r)    : 5.11036e-05
        Cs(f)    : 5.11021e-10
        Cs(r)    : -5.11021e-10
        Cl(f)    : 0.00014839
        Cl(r)    : 0.000151034
Time = 21

smoothSolver:  Solving for Ux, Initial residual = 0.0792545, Final residual = 0.00549665, No Iterations 3
smoothSolver:  Solving for Uy, Initial residual = 0.128599, Final residual = 0.00771975, No Iterations 3
GAMG:  Solving for p, Initial residual = 0.0346334, Final residual = 0.00327983, No Iterations 3
time step continuity errors : sum local = 0.0425093, global = 0.000608262, cumulative = -0.0250445
ExecutionTime = 0.16 s  ClockTime = 0 s

forceCoeffs forceCoeffs execute:
    Coefficients
        Cd       : 0.000101852	(pressure: 8.32197e-05	viscous: 1.86323e-05)
        Cs       : 5.51982e-20	(pressure: 5.30885e-20	viscous: 2.1097e-21)
        Cl       : 0.000300034	(pressure: 0.000292596	viscous: 7.43823e-06)
        CmRoll       : -1.50017e-09	(pressure: -1.46298e-09	viscous: -3.71912e-11)
        CmPitch       : -1.32185e-06	(pressure: -1.33972e-06	viscous: 1.78736e-08)
        CmYaw       : 5.0926e-10	(pressure: 4.16099e-10	viscous: 9.31614e-11)
        Cd(f)    : 5.09245e-05
        Cd(r)    : 5.09275e-05
        Cs(f)    : 5.0926e-10
        Cs(r)    : -5.0926e-10
        Cl(f)    : 0.000148695
        Cl(r)    : 0.000151339
Time = 22

smoothSolver:  Solving for Ux, Initial residual = 0.0711094, Final residual = 0.00517618, No Iterations 3
smoothSolver:  Solving for Uy, Initial residual = 0.121328, Final residual = 0.00676377, No Iterations 3
GAMG:  Solving for p, Initial residual = 0.0309175, Final residual = 0.00290333, No Iterations 3
time step continuity errors : sum local = 0.035654, global = -0.000981555, cumulative = -0.026026
ExecutionTime = 0.16 s  ClockTime = 0 s

forceCoeffs forceCoeffs execute:
    Coefficients
        Cd       : 0.000101741	(pressure: 8.32688e-05	viscous: 1.84722e-05)
        Cs       : 5.37356e-20	(pressure: 5.13285e-20	viscous: 2.40714e-21)
        Cl       : 0.00029895	(pressure: 0.000291165	viscous: 7.78539e-06)
        CmRoll       : -1.49475e-09	(pressure: -1.45582e-09	viscous: -3.89269e-11)
        CmPitch       : -1.31568e-06	(pressure: -1.3303e-06	viscous: 1.46149e-08)
        CmYaw       : 5.08705e-10	(pressure: 4.16344e-10	viscous: 9.2361e-11)
        Cd(f)    : 5.0869e-05
        Cd(r)    : 5.0872e-05
        Cs(f)    : 5.08705e-10
        Cs(r)    : -5.08705e-10
        Cl(f)    : 0.000148159
        Cl(r)    : 0.000150791
Time = 23

smoothSolver:  Solving for Ux, Initial residual = 0.0633879, Final residual = 0.00510291, No Iterations 3
smoothSolver:  Solving for Uy, Initial residual = 0.106142, Final residual = 0.00560621, No Iterations 3
GAMG:  Solving for p, Initial residual = 0.0278811, Final residual = 0.00266188, No Iterations 3
time step continuity errors : sum local = 0.0313906, global = -0.00148333, cumulative = -0.0275093
ExecutionTime = 0.16 s  ClockTime = 0 s

forceCoeffs forceCoeffs execute:
    Coefficients
        Cd       : 0.000102079	(pressure: 8.36041e-05	viscous: 1.84753e-05)
        Cs       : 5.19473e-20	(pressure: 4.96951e-20	viscous: 2.25225e-21)
        Cl       : 0.000296498	(pressure: 0.000288287	viscous: 8.21131e-06)
        CmRoll       : -1.48249e-09	(pressure: -1.44143e-09	viscous: -4.10566e-11)
        CmPitch       : -1.30379e-06	(pressure: -1.31444e-06	viscous: 1.06572e-08)
        CmYaw       : 5.10397e-10	(pressure: 4.1802e-10	viscous: 9.23764e-11)
        Cd(f)    : 5.10382e-05
        Cd(r)    : 5.10412e-05
        Cs(f)    : 5.10397e-10
        Cs(r)    : -5.10397e-10
        Cl(f)    : 0.000146945
        Cl(r)    : 0.000149553
Time = 24

smoothSolver:  Solving for Ux, Initial residual = 0.0538502, Final residual = 0.0049102, No Iterations 3
smoothSolver:  Solving for Uy, Initial residual = 0.0902842, Final residual = 0.00486364, No Iterations 3
GAMG:  Solving for p, Initial residual = 0.0262982, Final residual = 0.00231829, No Iterations 3
time step continuity errors : sum local = 0.0268727, global = -0.00108643, cumulative = -0.0285958
ExecutionTime = 0.16 s  ClockTime = 0 s

forceCoeffs forceCoeffs execute:
    Coefficients
        Cd       : 0.000102662	(pressure: 8.41035e-05	viscous: 1.85587e-05)
        Cs       : 4.97077e-20	(pressure: 4.82182e-20	viscous: 1.48959e-21)
        Cl       : 0.000293453	(pressure: 0.00028501	viscous: 8.44257e-06)
        CmRoll       : -1.46726e-09	(pressure: -1.42505e-09	viscous: -4.22129e-11)
        CmPitch       : -1.28916e-06	(pressure: -1.29762e-06	viscous: 8.45852e-09)
        CmYaw       : 5.13311e-10	(pressure: 4.20517e-10	viscous: 9.27937e-11)
        Cd(f)    : 5.13296e-05
        Cd(r)    : 5.13326e-05
        Cs(f)    : 5.13311e-10
        Cs(r)    : -5.13311e-10
        Cl(f)    : 0.000145437
        Cl(r)    : 0.000148015
Time = 25

smoothSolver:  Solving for Ux, Initial residual = 0.0455292, Final residual = 0.00453224, No Iterations 3
smoothSolver:  Solving for Uy, Initial residual = 0.0770891, Final residual = 0.00458789, No Iterations 3
GAMG:  Solving for p, Initial residual = 0.0245227, Final residual = 0.00207754, No Iterations 3
time step continuity errors : sum local = 0.023815, global = -0.000399697, cumulative = -0.0289955
ExecutionTime = 0.18 s  ClockTime = 0 s

forceCoeffs forceCoeffs execute:
    Coefficients
        Cd       : 0.000103188	(pressure: 8.46182e-05	viscous: 1.85702e-05)
        Cs       : 4.74369e-20	(pressure: 4.68434e-20	viscous: 5.93521e-22)
        Cl       : 0.000290306	(pressure: 0.000281741	viscous: 8.56449e-06)
        CmRoll       : -1.45153e-09	(pressure: -1.40871e-09	viscous: -4.28224e-11)
        CmPitch       : -1.27401e-06	(pressure: -1.2811e-06	viscous: 7.08764e-09)
        CmYaw       : 5.15942e-10	(pressure: 4.23091e-10	viscous: 9.28512e-11)
        Cd(f)    : 5.15928e-05
        Cd(r)    : 5.15957e-05
        Cs(f)    : 5.15942e-10
        Cs(r)    : -5.15942e-10
        Cl(f)    : 0.000143879
        Cl(r)    : 0.000146427
Time = 26

smoothSolver:  Solving for Ux, Initial residual = 0.0392445, Final residual = 0.00269678, No Iterations 4
smoothSolver:  Solving for Uy, Initial residual = 0.0645228, Final residual = 0.00448079, No Iterations 3
GAMG:  Solving for p, Initial residual = 0.0230129, Final residual = 0.00187584, No Iterations 3
time step continuity errors : sum local = 0.0212806, global = -4.26596e-05, cumulative = -0.0290381
ExecutionTime = 0.18 s  ClockTime = 0 s

forceCoeffs forceCoeffs execute:
    Coefficients
        Cd       : 0.000103351	(pressure: 8.48724e-05	viscous: 1.84781e-05)
        Cs       : 4.55146e-20	(pressure: 4.54243e-20	viscous: 9.02446e-23)
        Cl       : 0.00028638	(pressure: 0.00027785	viscous: 8.52969e-06)
        CmRoll       : -1.4319e-09	(pressure: -1.38925e-09	viscous: -4.26484e-11)
        CmPitch       : -1.25366e-06	(pressure: -1.26066e-06	viscous: 6.99848e-09)
        CmYaw       : 5.16753e-10	(pressure: 4.24362e-10	viscous: 9.23906e-11)
        Cd(f)    : 5.16738e-05
        Cd(r)    : 5.16767e-05
        Cs(f)    : 5.16753e-10
        Cs(r)    : -5.16753e-10
        Cl(f)    : 0.000141936
        Cl(r)    : 0.000144444
Time = 27

smoothSolver:  Solving for Ux, Initial residual = 0.0340802, Final residual = 0.00236909, No Iterations 4
smoothSolver:  Solving for Uy, Initial residual = 0.0552253, Final residual = 0.00454705, No Iterations 3
GAMG:  Solving for p, Initial residual = 0.0212274, Final residual = 0.00183342, No Iterations 3
time step continuity errors : sum local = 0.0204911, global = 9.00774e-05, cumulative = -0.0289481
ExecutionTime = 0.18 s  ClockTime = 0 s

forceCoeffs forceCoeffs execute:
    Coefficients
        Cd       : 0.000103328	(pressure: 8.49822e-05	viscous: 1.83456e-05)
        Cs       : 4.36071e-20	(pressure: 4.40297e-20	viscous: -4.2256e-22)
        Cl       : 0.000282118	(pressure: 0.000273692	viscous: 8.42608e-06)
        CmRoll       : -1.41059e-09	(pressure: -1.36846e-09	viscous: -4.21304e-11)
        CmPitch       : -1.23109e-06	(pressure: -1.23862e-06	viscous: 7.52552e-09)
        CmYaw       : 5.16639e-10	(pressure: 4.24911e-10	viscous: 9.17281e-11)
        Cd(f)    : 5.16625e-05
        Cd(r)    : 5.16653e-05
        Cs(f)    : 5.16639e-10
        Cs(r)    : -5.16639e-10
        Cl(f)    : 0.000139828
        Cl(r)    : 0.00014229
Time = 28

smoothSolver:  Solving for Ux, Initial residual = 0.0294315, Final residual = 0.00219162, No Iterations 4
smoothSolver:  Solving for Uy, Initial residual = 0.0487304, Final residual = 0.0043361, No Iterations 3
GAMG:  Solving for p, Initial residual = 0.0200401, Final residual = 0.00174603, No Iterations 3
time step continuity errors : sum local = 0.0192809, global = 6.77612e-05, cumulative = -0.0288803
ExecutionTime = 0.18 s  ClockTime = 0 s

forceCoeffs forceCoeffs execute:
    Coefficients
        Cd       : 0.000103412	(pressure: 8.51692e-05	viscous: 1.82426e-05)
        Cs       : 4.20157e-20	(pressure: 4.28211e-20	viscous: -8.054e-22)
        Cl       : 0.000278393	(pressure: 0.000270099	viscous: 8.29397e-06)
        CmRoll       : -1.39197e-09	(pressure: -1.3505e-09	viscous: -4.14698e-11)
        CmPitch       : -1.2117e-06	(pressure: -1.22006e-06	viscous: 8.36715e-09)
        CmYaw       : 5.17059e-10	(pressure: 4.25846e-10	viscous: 9.1213e-11)
        Cd(f)    : 5.17045e-05
        Cd(r)    : 5.17073e-05
        Cs(f)    : 5.17059e-10
        Cs(r)    : -5.17059e-10
        Cl(f)    : 0.000137985
        Cl(r)    : 0.000140408
Time = 29

smoothSolver:  Solving for Ux, Initial residual = 0.0263455, Final residual = 0.00206372, No Iterations 4
smoothSolver:  Solving for Uy, Initial residual = 0.0450662, Final residual = 0.00415037, No Iterations 3
GAMG:  Solving for p, Initial residual = 0.019104, Final residual = 0.00167555, No Iterations 3
time step continuity errors : sum local = 0.0183308, global = 4.29721e-05, cumulative = -0.0288373
ExecutionTime = 0.2 s  ClockTime = 0 s

forceCoeffs forceCoeffs execute:
    Coefficients
        Cd       : 0.000103441	(pressure: 8.52782e-05	viscous: 1.81624e-05)
        Cs       : 4.06253e-20	(pressure: 4.17028e-20	viscous: -1.07749e-21)
        Cl       : 0.00027517	(pressure: 0.000267016	viscous: 8.15442e-06)
        CmRoll       : -1.37585e-09	(pressure: -1.33508e-09	viscous: -4.07721e-11)
        CmPitch       : -1.19483e-06	(pressure: -1.20415e-06	viscous: 9.31129e-09)
        CmYaw       : 5.17203e-10	(pressure: 4.26391e-10	viscous: 9.08119e-11)
        Cd(f)    : 5.17189e-05
        Cd(r)    : 5.17217e-05
        Cs(f)    : 5.17203e-10
        Cs(r)    : -5.17203e-10
        Cl(f)    : 0.00013639
        Cl(r)    : 0.00013878
Time = 30

smoothSolver:  Solving for Ux, Initial residual = 0.0243102, Final residual = 0.00195724, No Iterations 4
smoothSolver:  Solving for Uy, Initial residual = 0.0416566, Final residual = 0.00395227, No Iterations 3
GAMG:  Solving for p, Initial residual = 0.0179656, Final residual = 0.00160334, No Iterations 3
time step continuity errors : sum local = 0.0173787, global = -7.26955e-05, cumulative = -0.02891
ExecutionTime = 0.2 s  ClockTime = 0 s

forceCoeffs forceCoeffs execute:
    Coefficients
        Cd       : 0.000103416	(pressure: 8.53248e-05	viscous: 1.80914e-05)
        Cs       : 3.94728e-20	(pressure: 4.06757e-20	viscous: -1.20289e-21)
        Cl       : 0.00027237	(pressure: 0.000264353	viscous: 8.01771e-06)
        CmRoll       : -1.36185e-09	(pressure: -1.32176e-09	viscous: -4.00885e-11)
        CmPitch       : -1.17999e-06	(pressure: -1.19026e-06	viscous: 1.02697e-08)
        CmYaw       : 5.17081e-10	(pressure: 4.26624e-10	viscous: 9.04572e-11)
        Cd(f)    : 5.17068e-05
        Cd(r)    : 5.17095e-05
        Cs(f)    : 5.17081e-10
        Cs(r)    : -5.17081e-10
        Cl(f)    : 0.000135005
        Cl(r)    : 0.000137365
Time = 31

smoothSolver:  Solving for Ux, Initial residual = 0.0227562, Final residual = 0.0018954, No Iterations 4
smoothSolver:  Solving for Uy, Initial residual = 0.038458, Final residual = 0.00376493, No Iterations 3
GAMG:  Solving for p, Initial residual = 0.017121, Final residual = 0.00154501, No Iterations 3
time step continuity errors : sum local = 0.0166565, global = -2.20813e-05, cumulative = -0.0289321
ExecutionTime = 0.2 s  ClockTime = 0 s

forceCoeffs forceCoeffs execute:
    Coefficients
        Cd       : 0.000103336	(pressure: 8.53261e-05	viscous: 1.80096e-05)
        Cs       : 3.82809e-20	(pressure: 3.97253e-20	viscous: -1.44442e-21)
        Cl       : 0.000269831	(pressure: 0.000261911	viscous: 7.92014e-06)
        CmRoll       : -1.34915e-09	(pressure: -1.30955e-09	viscous: -3.96007e-11)
        CmPitch       : -1.16654e-06	(pressure: -1.17743e-06	viscous: 1.08892e-08)
        CmYaw       : 5.16679e-10	(pressure: 4.26631e-10	viscous: 9.00478e-11)
        Cd(f)    : 5.16665e-05
        Cd(r)    : 5.16692e-05
        Cs(f)    : 5.16679e-10
        Cs(r)    : -5.16679e-10
        Cl(f)    : 0.000133749
        Cl(r)    : 0.000136082
Time = 32

smoothSolver:  Solving for Ux, Initial residual = 0.021334, Final residual = 0.00181782, No Iterations 4
smoothSolver:  Solving for Uy, Initial residual = 0.0357168, Final residual = 0.00218469, No Iterations 4
GAMG:  Solving for p, Initial residual = 0.0163773, Final residual = 0.001542, No Iterations 3
time step continuity errors : sum local = 0.0165675, global = 2.15945e-05, cumulative = -0.0289105
ExecutionTime = 0.2 s  ClockTime = 0 s

forceCoeffs forceCoeffs execute:
    Coefficients
        Cd       : 0.000103213	(pressure: 8.5306e-05	viscous: 1.79072e-05)
        Cs       : 3.71749e-20	(pressure: 3.88458e-20	viscous: -1.67095e-21)
        Cl       : 0.000267418	(pressure: 0.000259551	viscous: 7.86724e-06)
        CmRoll       : -1.33709e-09	(pressure: -1.29775e-09	viscous: -3.93362e-11)
        CmPitch       : -1.15389e-06	(pressure: -1.16503e-06	viscous: 1.11358e-08)
        CmYaw       : 5.16066e-10	(pressure: 4.2653e-10	viscous: 8.95361e-11)
        Cd(f)    : 5.16053e-05
        Cd(r)    : 5.16079e-05
        Cs(f)    : 5.16066e-10
        Cs(r)    : -5.16066e-10
        Cl(f)    : 0.000132555
        Cl(r)    : 0.000134863
Time = 33

smoothSolver:  Solving for Ux, Initial residual = 0.0197518, Final residual = 0.00174421, No Iterations 4
smoothSolver:  Solving for Uy, Initial residual = 0.0327948, Final residual = 0.00200706, No Iterations 4
GAMG:  Solving for p, Initial residual = 0.0149944, Final residual = 0.00147554, No Iterations 3
time step continuity errors : sum local = 0.015707, global = 2.48217e-05, cumulative = -0.0288857
ExecutionTime = 0.21 s  ClockTime = 0 s

forceCoeffs forceCoeffs execute:
    Coefficients
        Cd       : 0.000103108	(pressure: 8.53121e-05	viscous: 1.77964e-05)
        Cs       : 3.61244e-20	(pressure: 3.80708e-20	viscous: -1.94641e-21)
        Cl       : 0.000265054	(pressure: 0.000257223	viscous: 7.83067e-06)
        CmRoll       : -1.32527e-09	(pressure: -1.28612e-09	viscous: -3.91534e-11)
        CmPitch       : -1.14188e-06	(pressure: -1.1531e-06	viscous: 1.12176e-08)
        CmYaw       : 5.15542e-10	(pressure: 4.2656e-10	viscous: 8.8982e-11)
        Cd(f)    : 5.15529e-05
        Cd(r)    : 5.15556e-05
        Cs(f)    : 5.15542e-10
        Cs(r)    : -5.15542e-10
        Cl(f)    : 0.000131385
        Cl(r)    : 0.000133669
Time = 34

smoothSolver:  Solving for Ux, Initial residual = 0.0185787, Final residual = 0.0016803, No Iterations 4
smoothSolver:  Solving for Uy, Initial residual = 0.0305348, Final residual = 0.00189347, No Iterations 4
GAMG:  Solving for p, Initial residual = 0.0139153, Final residual = 0.000914329, No Iterations 4
time step continuity errors : sum local = 0.00961752, global = 0.000657087, cumulative = -0.0282286
ExecutionTime = 0.21 s  ClockTime = 0 s

forceCoeffs forceCoeffs execute:
    Coefficients
        Cd       : 0.000103109	(pressure: 8.54053e-05	viscous: 1.77038e-05)
        Cs       : 3.53038e-20	(pressure: 3.74443e-20	viscous: -2.14048e-21)
        Cl       : 0.000262953	(pressure: 0.000255169	viscous: 7.78426e-06)
        CmRoll       : -1.31477e-09	(pressure: -1.27584e-09	viscous: -3.89213e-11)
        CmPitch       : -1.13168e-06	(pressure: -1.1431e-06	viscous: 1.14232e-08)
        CmYaw       : 5.15546e-10	(pressure: 4.27026e-10	viscous: 8.85192e-11)
        Cd(f)    : 5.15532e-05
        Cd(r)    : 5.15559e-05
        Cs(f)    : 5.15546e-10
        Cs(r)    : -5.15546e-10
        Cl(f)    : 0.000130345
        Cl(r)    : 0.000132608
Time = 35

smoothSolver:  Solving for Ux, Initial residual = 0.0176363, Final residual = 0.00161922, No Iterations 4
smoothSolver:  Solving for Uy, Initial residual = 0.029188, Final residual = 0.00184346, No Iterations 4
GAMG:  Solving for p, Initial residual = 0.0129814, Final residual = 0.000862496, No Iterations 4
time step continuity errors : sum local = 0.00899871, global = 0.000641496, cumulative = -0.0275871
ExecutionTime = 0.21 s  ClockTime = 0 s

forceCoeffs forceCoeffs execute:
    Coefficients
        Cd       : 0.000103045	(pressure: 8.54216e-05	viscous: 1.76234e-05)
        Cs       : 3.46033e-20	(pressure: 3.68432e-20	viscous: -2.23991e-21)
        Cl       : 0.000260809	(pressure: 0.000253075	viscous: 7.73341e-06)
        CmRoll       : -1.30404e-09	(pressure: -1.26538e-09	viscous: -3.86671e-11)
        CmPitch       : -1.12107e-06	(pressure: -1.13276e-06	viscous: 1.16882e-08)
        CmYaw       : 5.15225e-10	(pressure: 4.27108e-10	viscous: 8.81171e-11)
        Cd(f)    : 5.15212e-05
        Cd(r)    : 5.15238e-05
        Cs(f)    : 5.15225e-10
        Cs(r)    : -5.15225e-10
        Cl(f)    : 0.000129283
        Cl(r)    : 0.000131525
Time = 36

smoothSolver:  Solving for Ux, Initial residual = 0.0164567, Final residual = 0.0014947, No Iterations 4
smoothSolver:  Solving for Uy, Initial residual = 0.0270754, Final residual = 0.00169318, No Iterations 4
GAMG:  Solving for p, Initial residual = 0.0119388, Final residual = 0.000777466, No Iterations 4
time step continuity errors : sum local = 0.00805492, global = 0.000689831, cumulative = -0.0268973
ExecutionTime = 0.21 s  ClockTime = 0 s

forceCoeffs forceCoeffs execute:
    Coefficients
        Cd       : 0.000102924	(pressure: 8.53742e-05	viscous: 1.75493e-05)
        Cs       : 3.39981e-20	(pressure: 3.62485e-20	viscous: -2.25041e-21)
        Cl       : 0.000258503	(pressure: 0.00025082	viscous: 7.68326e-06)
        CmRoll       : -1.29252e-09	(pressure: -1.2541e-09	viscous: -3.84163e-11)
        CmPitch       : -1.10951e-06	(pressure: -1.12146e-06	viscous: 1.19535e-08)
        CmYaw       : 5.14618e-10	(pressure: 4.26871e-10	viscous: 8.77466e-11)
        Cd(f)    : 5.14605e-05
        Cd(r)    : 5.14631e-05
        Cs(f)    : 5.14618e-10
        Cs(r)    : -5.14618e-10
        Cl(f)    : 0.000128142
        Cl(r)    : 0.000130361
Time = 37

smoothSolver:  Solving for Ux, Initial residual = 0.0153147, Final residual = 0.00141701, No Iterations 4
smoothSolver:  Solving for Uy, Initial residual = 0.0249695, Final residual = 0.00153138, No Iterations 4
GAMG:  Solving for p, Initial residual = 0.0109305, Final residual = 0.000707814, No Iterations 4
time step continuity errors : sum local = 0.00729069, global = 0.000696107, cumulative = -0.0262012
ExecutionTime = 0.23 s  ClockTime = 0 s

forceCoeffs forceCoeffs execute:
    Coefficients
        Cd       : 0.000102781	(pressure: 8.5298e-05	viscous: 1.74832e-05)
        Cs       : 3.33988e-20	(pressure: 3.56858e-20	viscous: -2.28703e-21)
        Cl       : 0.000256214	(pressure: 0.000248568	viscous: 7.6454e-06)
        CmRoll       : -1.28107e-09	(pressure: -1.24284e-09	viscous: -3.8227e-11)
        CmPitch       : -1.09807e-06	(pressure: -1.11019e-06	viscous: 1.21165e-08)
        CmYaw       : 5.13906e-10	(pressure: 4.2649e-10	viscous: 8.74161e-11)
        Cd(f)    : 5.13893e-05
        Cd(r)    : 5.13919e-05
        Cs(f)    : 5.13906e-10
        Cs(r)    : -5.13906e-10
        Cl(f)    : 0.000127009
        Cl(r)    : 0.000129205
Time = 38

smoothSolver:  Solving for Ux, Initial residual = 0.0143547, Final residual = 0.00135222, No Iterations 4
smoothSolver:  Solving for Uy, Initial residual = 0.0230485, Final residual = 0.00140936, No Iterations 4
GAMG:  Solving for p, Initial residual = 0.0101016, Final residual = 0.000661395, No Iterations 4
time step continuity errors : sum local = 0.00677808, global = 0.000700699, cumulative = -0.0255005
ExecutionTime = 0.23 s  ClockTime = 0 s

forceCoeffs forceCoeffs execute:
    Coefficients
        Cd       : 0.000102586	(pressure: 8.5168e-05	viscous: 1.74178e-05)
        Cs       : 3.28405e-20	(pressure: 3.51343e-20	viscous: -2.29385e-21)
        Cl       : 0.000253882	(pressure: 0.000246265	viscous: 7.61739e-06)
        CmRoll       : -1.26941e-09	(pressure: -1.23132e-09	viscous: -3.80869e-11)
        CmPitch       : -1.08639e-06	(pressure: -1.09859e-06	viscous: 1.21931e-08)
        CmYaw       : 5.12929e-10	(pressure: 4.2584e-10	viscous: 8.70891e-11)
        Cd(f)    : 5.12916e-05
        Cd(r)    : 5.12942e-05
        Cs(f)    : 5.12929e-10
        Cs(r)    : -5.12929e-10
        Cl(f)    : 0.000125855
        Cl(r)    : 0.000128027
Time = 39

smoothSolver:  Solving for Ux, Initial residual = 0.0134802, Final residual = 0.00129162, No Iterations 4
smoothSolver:  Solving for Uy, Initial residual = 0.0214499, Final residual = 0.001314, No Iterations 4
GAMG:  Solving for p, Initial residual = 0.00929616, Final residual = 0.000634358, No Iterations 4
time step continuity errors : sum local = 0.00646831, global = 0.00074708, cumulative = -0.0247534
ExecutionTime = 0.23 s  ClockTime = 0 s

forceCoeffs forceCoeffs execute:
    Coefficients
        Cd       : 0.000102351	(pressure: 8.50017e-05	viscous: 1.73489e-05)
        Cs       : 3.233e-20	(pressure: 3.46024e-20	viscous: -2.27235e-21)
        Cl       : 0.000251533	(pressure: 0.000243933	viscous: 7.59966e-06)
        CmRoll       : -1.25767e-09	(pressure: -1.21967e-09	viscous: -3.79983e-11)
        CmPitch       : -1.07462e-06	(pressure: -1.0868e-06	viscous: 1.21752e-08)
        CmYaw       : 5.11753e-10	(pressure: 4.25009e-10	viscous: 8.67446e-11)
        Cd(f)    : 5.11741e-05
        Cd(r)    : 5.11766e-05
        Cs(f)    : 5.11753e-10
        Cs(r)    : -5.11753e-10
        Cl(f)    : 0.000124692
        Cl(r)    : 0.000126841
Time = 40

smoothSolver:  Solving for Ux, Initial residual = 0.0127671, Final residual = 0.00125285, No Iterations 4
smoothSolver:  Solving for Uy, Initial residual = 0.0201254, Final residual = 0.00124087, No Iterations 4
GAMG:  Solving for p, Initial residual = 0.00867192, Final residual = 0.000619566, No Iterations 4
time step continuity errors : sum local = 0.00629061, global = 0.000788949, cumulative = -0.0239644
ExecutionTime = 0.23 s  ClockTime = 0 s

forceCoeffs forceCoeffs execute:
    Coefficients
        Cd       : 0.000102116	(pressure: 8.48345e-05	viscous: 1.7281e-05)
        Cs       : 3.18563e-20	(pressure: 3.4113e-20	viscous: -2.25666e-21)
        Cl       : 0.000249268	(pressure: 0.000241678	viscous: 7.59047e-06)
        CmRoll       : -1.24634e-09	(pressure: -1.20839e-09	viscous: -3.79524e-11)
        CmPitch       : -1.06336e-06	(pressure: -1.07545e-06	viscous: 1.2084e-08)
        CmYaw       : 5.10578e-10	(pressure: 4.24173e-10	viscous: 8.64049e-11)
        Cd(f)    : 5.10565e-05
        Cd(r)    : 5.1059e-05
        Cs(f)    : 5.10578e-10
        Cs(r)    : -5.10578e-10
        Cl(f)    : 0.000123571
        Cl(r)    : 0.000125698
Time = 41

smoothSolver:  Solving for Ux, Initial residual = 0.0121631, Final residual = 0.00121526, No Iterations 4
smoothSolver:  Solving for Uy, Initial residual = 0.0190812, Final residual = 0.00118911, No Iterations 4
GAMG:  Solving for p, Initial residual = 0.00812934, Final residual = 0.000614877, No Iterations 4
time step continuity errors : sum local = 0.00622136, global = 0.000852992, cumulative = -0.0231114
ExecutionTime = 0.25 s  ClockTime = 0 s

forceCoeffs forceCoeffs execute:
    Coefficients
        Cd       : 0.000101877	(pressure: 8.46613e-05	viscous: 1.72153e-05)
        Cs       : 3.14174e-20	(pressure: 3.3658e-20	viscous: -2.24059e-21)
        Cl       : 0.00024708	(pressure: 0.000239494	viscous: 7.58618e-06)
        CmRoll       : -1.2354e-09	(pressure: -1.19747e-09	viscous: -3.79309e-11)
        CmPitch       : -1.05252e-06	(pressure: -1.06447e-06	viscous: 1.1954e-08)
        CmYaw       : 5.09383e-10	(pressure: 4.23306e-10	viscous: 8.60767e-11)
        Cd(f)    : 5.09371e-05
        Cd(r)    : 5.09395e-05
        Cs(f)    : 5.09383e-10
        Cs(r)    : -5.09383e-10
        Cl(f)    : 0.000122488
        Cl(r)    : 0.000124593
Time = 42

smoothSolver:  Solving for Ux, Initial residual = 0.0116068, Final residual = 0.000846721, No Iterations 5
smoothSolver:  Solving for Uy, Initial residual = 0.0182074, Final residual = 0.00114924, No Iterations 4
GAMG:  Solving for p, Initial residual = 0.00767247, Final residual = 0.000619974, No Iterations 4
time step continuity errors : sum local = 0.00625582, global = 0.000946898, cumulative = -0.0221645
ExecutionTime = 0.25 s  ClockTime = 0 s

forceCoeffs forceCoeffs execute:
    Coefficients
        Cd       : 0.000101567	(pressure: 8.44282e-05	viscous: 1.71388e-05)
        Cs       : 3.09727e-20	(pressure: 3.31743e-20	viscous: -2.20168e-21)
        Cl       : 0.000244675	(pressure: 0.000237089	viscous: 7.58525e-06)
        CmRoll       : -1.22337e-09	(pressure: -1.18545e-09	viscous: -3.79263e-11)
        CmPitch       : -1.04035e-06	(pressure: -1.05214e-06	viscous: 1.1782e-08)
        CmYaw       : 5.07835e-10	(pressure: 4.22141e-10	viscous: 8.56939e-11)
        Cd(f)    : 5.07822e-05
        Cd(r)    : 5.07847e-05
        Cs(f)    : 5.07835e-10
        Cs(r)    : -5.07835e-10
        Cl(f)    : 0.000121297
        Cl(r)    : 0.000123378
Time = 43

smoothSolver:  Solving for Ux, Initial residual = 0.0112228, Final residual = 0.00111415, No Iterations 4
smoothSolver:  Solving for Uy, Initial residual = 0.0178324, Final residual = 0.00115743, No Iterations 4
GAMG:  Solving for p, Initial residual = 0.00717473, Final residual = 0.000645934, No Iterations 4
time step continuity errors : sum local = 0.00649905, global = 0.00104955, cumulative = -0.021115
ExecutionTime = 0.25 s  ClockTime = 0 s

forceCoeffs forceCoeffs execute:
    Coefficients
        Cd       : 0.000101315	(pressure: 8.42386e-05	viscous: 1.70766e-05)
        Cs       : 3.0566e-20	(pressure: 3.27509e-20	viscous: -2.18489e-21)
        Cl       : 0.000242441	(pressure: 0.000234852	viscous: 7.58831e-06)
        CmRoll       : -1.2122e-09	(pressure: -1.17426e-09	viscous: -3.79415e-11)
        CmPitch       : -1.02925e-06	(pressure: -1.04084e-06	viscous: 1.159e-08)
        CmYaw       : 5.06576e-10	(pressure: 4.21193e-10	viscous: 8.53831e-11)
        Cd(f)    : 5.06564e-05
        Cd(r)    : 5.06588e-05
        Cs(f)    : 5.06576e-10
        Cs(r)    : -5.06576e-10
        Cl(f)    : 0.000120191
        Cl(r)    : 0.00012225
Time = 44

smoothSolver:  Solving for Ux, Initial residual = 0.0106272, Final residual = 0.000813447, No Iterations 5
smoothSolver:  Solving for Uy, Initial residual = 0.0168372, Final residual = 0.00108688, No Iterations 4
GAMG:  Solving for p, Initial residual = 0.00680513, Final residual = 0.000626983, No Iterations 4
time step continuity errors : sum local = 0.00630056, global = 0.00106332, cumulative = -0.0200517
ExecutionTime = 0.26 s  ClockTime = 0 s

forceCoeffs forceCoeffs execute:
    Coefficients
        Cd       : 0.000101096	(pressure: 8.40772e-05	viscous: 1.70184e-05)
        Cs       : 3.01968e-20	(pressure: 3.23689e-20	viscous: -2.17208e-21)
        Cl       : 0.000240349	(pressure: 0.000232761	viscous: 7.5873e-06)
        CmRoll       : -1.20174e-09	(pressure: -1.16381e-09	viscous: -3.79365e-11)
        CmPitch       : -1.01893e-06	(pressure: -1.03037e-06	viscous: 1.14406e-08)
        CmYaw       : 5.05478e-10	(pressure: 4.20386e-10	viscous: 8.50918e-11)
        Cd(f)    : 5.05466e-05
        Cd(r)    : 5.0549e-05
        Cs(f)    : 5.05478e-10
        Cs(r)    : -5.05478e-10
        Cl(f)    : 0.000119155
        Cl(r)    : 0.000121193
Time = 45

smoothSolver:  Solving for Ux, Initial residual = 0.0101872, Final residual = 0.000752954, No Iterations 5
smoothSolver:  Solving for Uy, Initial residual = 0.0163884, Final residual = 0.00108821, No Iterations 4
GAMG:  Solving for p, Initial residual = 0.00642155, Final residual = 0.000632914, No Iterations 4
time step continuity errors : sum local = 0.00635179, global = 0.00109516, cumulative = -0.0189565
ExecutionTime = 0.26 s  ClockTime = 0 s

forceCoeffs forceCoeffs execute:
    Coefficients
        Cd       : 0.000100821	(pressure: 8.386e-05	viscous: 1.69605e-05)
        Cs       : 2.98204e-20	(pressure: 3.19592e-20	viscous: -2.13873e-21)
        Cl       : 0.000238125	(pressure: 0.000230539	viscous: 7.58635e-06)
        CmRoll       : -1.19063e-09	(pressure: -1.1527e-09	viscous: -3.79318e-11)
        CmPitch       : -1.00775e-06	(pressure: -1.01904e-06	viscous: 1.1293e-08)
        CmYaw       : 5.04103e-10	(pressure: 4.193e-10	viscous: 8.48026e-11)
        Cd(f)    : 5.04091e-05
        Cd(r)    : 5.04115e-05
        Cs(f)    : 5.04103e-10
        Cs(r)    : -5.04103e-10
        Cl(f)    : 0.000118055
        Cl(r)    : 0.00012007
Time = 46

smoothSolver:  Solving for Ux, Initial residual = 0.0097517, Final residual = 0.000735263, No Iterations 5
smoothSolver:  Solving for Uy, Initial residual = 0.015799, Final residual = 0.00105899, No Iterations 4
GAMG:  Solving for p, Initial residual = 0.00605411, Final residual = 0.00047602, No Iterations 5
time step continuity errors : sum local = 0.00477296, global = -0.000847486, cumulative = -0.019804
ExecutionTime = 0.26 s  ClockTime = 0 s

forceCoeffs forceCoeffs execute:
    Coefficients
        Cd       : 0.000100667	(pressure: 8.37517e-05	viscous: 1.69155e-05)
        Cs       : 2.95307e-20	(pressure: 3.16566e-20	viscous: -2.12594e-21)
        Cl       : 0.000236312	(pressure: 0.000228726	viscous: 7.58647e-06)
        CmRoll       : -1.18156e-09	(pressure: -1.14363e-09	viscous: -3.79323e-11)
        CmPitch       : -9.98986e-07	(pressure: -1.01014e-06	viscous: 1.1154e-08)
        CmYaw       : 5.03336e-10	(pressure: 4.18758e-10	viscous: 8.45775e-11)
        Cd(f)    : 5.03324e-05
        Cd(r)    : 5.03348e-05
        Cs(f)    : 5.03336e-10
        Cs(r)    : -5.03336e-10
        Cl(f)    : 0.000117157
        Cl(r)    : 0.000119155
Time = 47

smoothSolver:  Solving for Ux, Initial residual = 0.00938922, Final residual = 0.000705123, No Iterations 5
smoothSolver:  Solving for Uy, Initial residual = 0.0155294, Final residual = 0.0010319, No Iterations 4
GAMG:  Solving for p, Initial residual = 0.00578619, Final residual = 0.000573051, No Iterations 4
time step continuity errors : sum local = 0.00574875, global = 0.000794788, cumulative = -0.0190092
ExecutionTime = 0.26 s  ClockTime = 0 s

forceCoeffs forceCoeffs execute:
    Coefficients
        Cd       : 0.000100452	(pressure: 8.35784e-05	viscous: 1.68732e-05)
        Cs       : 2.92213e-20	(pressure: 3.133e-20	viscous: -2.10864e-21)
        Cl       : 0.000234467	(pressure: 0.000226884	viscous: 7.58328e-06)
        CmRoll       : -1.17234e-09	(pressure: -1.13442e-09	viscous: -3.79164e-11)
        CmPitch       : -9.89803e-07	(pressure: -1.00086e-06	viscous: 1.10529e-08)
        CmYaw       : 5.02258e-10	(pressure: 4.17892e-10	viscous: 8.43662e-11)
        Cd(f)    : 5.02247e-05
        Cd(r)    : 5.0227e-05
        Cs(f)    : 5.02258e-10
        Cs(r)    : -5.02258e-10
        Cl(f)    : 0.000116244
        Cl(r)    : 0.000118224
Time = 48

smoothSolver:  Solving for Ux, Initial residual = 0.00884337, Final residual = 0.000691943, No Iterations 5
smoothSolver:  Solving for Uy, Initial residual = 0.0142714, Final residual = 0.000976093, No Iterations 4
GAMG:  Solving for p, Initial residual = 0.00538974, Final residual = 0.000422993, No Iterations 5
time step continuity errors : sum local = 0.00424449, global = -0.000599116, cumulative = -0.0196083
ExecutionTime = 0.28 s  ClockTime = 0 s

forceCoeffs forceCoeffs execute:
    Coefficients
        Cd       : 0.000100284	(pressure: 8.34504e-05	viscous: 1.68338e-05)
        Cs       : 2.89584e-20	(pressure: 3.10433e-20	viscous: -2.08492e-21)
        Cl       : 0.000232736	(pressure: 0.000225156	viscous: 7.58024e-06)
        CmRoll       : -1.16368e-09	(pressure: -1.12578e-09	viscous: -3.79012e-11)
        CmPitch       : -9.81311e-07	(pressure: -9.92268e-07	viscous: 1.09574e-08)
        CmYaw       : 5.01421e-10	(pressure: 4.17252e-10	viscous: 8.41688e-11)
        Cd(f)    : 5.01409e-05
        Cd(r)    : 5.01432e-05
        Cs(f)    : 5.01421e-10
        Cs(r)    : -5.01421e-10
        Cl(f)    : 0.000115387
        Cl(r)    : 0.000117349
Time = 49

smoothSolver:  Solving for Ux, Initial residual = 0.00843941, Final residual = 0.000662775, No Iterations 5
smoothSolver:  Solving for Uy, Initial residual = 0.0140781, Final residual = 0.000957418, No Iterations 4
GAMG:  Solving for p, Initial residual = 0.00512985, Final residual = 0.000385639, No Iterations 5
time step continuity errors : sum local = 0.00387214, global = -0.000422043, cumulative = -0.0200304
ExecutionTime = 0.28 s  ClockTime = 0 s

forceCoeffs forceCoeffs execute:
    Coefficients
        Cd       : 0.000100116	(pressure: 8.3318e-05	viscous: 1.67983e-05)
        Cs       : 2.86996e-20	(pressure: 3.07728e-20	viscous: -2.07317e-21)
        Cl       : 0.000231108	(pressure: 0.00022353	viscous: 7.57746e-06)
        CmRoll       : -1.15554e-09	(pressure: -1.11765e-09	viscous: -3.78873e-11)
        CmPitch       : -9.73286e-07	(pressure: -9.84156e-07	viscous: 1.08699e-08)
        CmYaw       : 5.00582e-10	(pressure: 4.1659e-10	viscous: 8.39914e-11)
        Cd(f)    : 5.0057e-05
        Cd(r)    : 5.00593e-05
        Cs(f)    : 5.00582e-10
        Cs(r)    : -5.00582e-10
        Cl(f)    : 0.000114581
        Cl(r)    : 0.000116527
Time = 50

smoothSolver:  Solving for Ux, Initial residual = 0.00807825, Final residual = 0.000639115, No Iterations 5
smoothSolver:  Solving for Uy, Initial residual = 0.0133776, Final residual = 0.000917212, No Iterations 4
GAMG:  Solving for p, Initial residual = 0.00480515, Final residual = 0.000359193, No Iterations 5
time step continuity errors : sum local = 0.00360907, global = -0.000321682, cumulative = -0.0203521
ExecutionTime = 0.28 s  ClockTime = 0 s

forceCoeffs forceCoeffs execute:
    Coefficients
        Cd       : 9.99349e-05	(pressure: 8.31728e-05	viscous: 1.67621e-05)
        Cs       : 2.84499e-20	(pressure: 3.04984e-20	viscous: -2.04852e-21)
        Cl       : 0.000229451	(pressure: 0.000221877	viscous: 7.57384e-06)
        CmRoll       : -1.14726e-09	(pressure: -1.10939e-09	viscous: -3.78692e-11)
        CmPitch       : -9.65029e-07	(pressure: -9.75821e-07	viscous: 1.07917e-08)
        CmYaw       : 4.99674e-10	(pressure: 4.15864e-10	viscous: 8.38104e-11)
        Cd(f)    : 4.99663e-05
        Cd(r)    : 4.99686e-05
        Cs(f)    : 4.99674e-10
        Cs(r)    : -4.99674e-10
        Cl(f)    : 0.000113761
        Cl(r)    : 0.000115691
Time = 51

smoothSolver:  Solving for Ux, Initial residual = 0.00767225, Final residual = 0.000625657, No Iterations 5
smoothSolver:  Solving for Uy, Initial residual = 0.0126963, Final residual = 0.0008817, No Iterations 4
GAMG:  Solving for p, Initial residual = 0.00452714, Final residual = 0.000337924, No Iterations 5
time step continuity errors : sum local = 0.00339655, global = -0.000261096, cumulative = -0.0206131
ExecutionTime = 0.29 s  ClockTime = 0 s

forceCoeffs forceCoeffs execute:
    Coefficients
        Cd       : 9.97558e-05	(pressure: 8.30295e-05	viscous: 1.67264e-05)
        Cs       : 2.81966e-20	(pressure: 3.02257e-20	viscous: -2.02911e-21)
        Cl       : 0.00022778	(pressure: 0.000220209	viscous: 7.57058e-06)
        CmRoll       : -1.1389e-09	(pressure: -1.10105e-09	viscous: -3.78529e-11)
        CmPitch       : -9.56675e-07	(pressure: -9.67388e-07	viscous: 1.0713e-08)
        CmYaw       : 4.98779e-10	(pressure: 4.15147e-10	viscous: 8.36319e-11)
        Cd(f)    : 4.98768e-05
        Cd(r)    : 4.98791e-05
        Cs(f)    : 4.98779e-10
        Cs(r)    : -4.98779e-10
        Cl(f)    : 0.000112933
        Cl(r)    : 0.000114847
Time = 52

smoothSolver:  Solving for Ux, Initial residual = 0.00730023, Final residual = 0.0006073, No Iterations 5
smoothSolver:  Solving for Uy, Initial residual = 0.0121431, Final residual = 0.000854242, No Iterations 4
GAMG:  Solving for p, Initial residual = 0.00428179, Final residual = 0.000321479, No Iterations 5
time step continuity errors : sum local = 0.00323159, global = -0.000218048, cumulative = -0.0208312
ExecutionTime = 0.29 s  ClockTime = 0 s

forceCoeffs forceCoeffs execute:
    Coefficients
        Cd       : 9.95763e-05	(pressure: 8.28848e-05	viscous: 1.66915e-05)
        Cs       : 2.79408e-20	(pressure: 2.99511e-20	viscous: -2.01029e-21)
        Cl       : 0.000226088	(pressure: 0.000218521	viscous: 7.56674e-06)
        CmRoll       : -1.13044e-09	(pressure: -1.0926e-09	viscous: -3.78337e-11)
        CmPitch       : -9.48184e-07	(pressure: -9.58825e-07	viscous: 1.06412e-08)
        CmYaw       : 4.97882e-10	(pressure: 4.14424e-10	viscous: 8.34576e-11)
        Cd(f)    : 4.9787e-05
        Cd(r)    : 4.97893e-05
        Cs(f)    : 4.97882e-10
        Cs(r)    : -4.97882e-10
        Cl(f)    : 0.000112096
        Cl(r)    : 0.000113992
Time = 53

smoothSolver:  Solving for Ux, Initial residual = 0.00698551, Final residual = 0.000591464, No Iterations 5
smoothSolver:  Solving for Uy, Initial residual = 0.0116822, Final residual = 0.000828978, No Iterations 4
GAMG:  Solving for p, Initial residual = 0.00407496, Final residual = 0.000307926, No Iterations 5
time step continuity errors : sum local = 0.00309542, global = -0.000183098, cumulative = -0.0210143
ExecutionTime = 0.29 s  ClockTime = 0 s

forceCoeffs forceCoeffs execute:
    Coefficients
        Cd       : 9.94066e-05	(pressure: 8.27484e-05	viscous: 1.66582e-05)
        Cs       : 2.76917e-20	(pressure: 2.96835e-20	viscous: -1.99183e-21)
        Cl       : 0.000224419	(pressure: 0.000216857	viscous: 7.5624e-06)
        CmRoll       : -1.1221e-09	(pressure: -1.08428e-09	viscous: -3.7812e-11)
        CmPitch       : -9.39819e-07	(pressure: -9.50395e-07	viscous: 1.05759e-08)
        CmYaw       : 4.97033e-10	(pressure: 4.13742e-10	viscous: 8.32909e-11)
        Cd(f)    : 4.97022e-05
        Cd(r)    : 4.97044e-05
        Cs(f)    : 4.97033e-10
        Cs(r)    : -4.97033e-10
        Cl(f)    : 0.00011127
        Cl(r)    : 0.000113149
Time = 54

smoothSolver:  Solving for Ux, Initial residual = 0.006703, Final residual = 0.000576728, No Iterations 5
smoothSolver:  Solving for Uy, Initial residual = 0.0112655, Final residual = 0.000805722, No Iterations 4
GAMG:  Solving for p, Initial residual = 0.00390338, Final residual = 0.000295593, No Iterations 5
time step continuity errors : sum local = 0.00297197, global = -0.000155914, cumulative = -0.0211702
ExecutionTime = 0.29 s  ClockTime = 0 s

forceCoeffs forceCoeffs execute:
    Coefficients
        Cd       : 9.92467e-05	(pressure: 8.26197e-05	viscous: 1.6627e-05)
        Cs       : 2.74493e-20	(pressure: 2.94248e-20	viscous: -1.97546e-21)
        Cl       : 0.000222797	(pressure: 0.000215239	viscous: 7.55744e-06)
        CmRoll       : -1.11398e-09	(pressure: -1.0762e-09	viscous: -3.77872e-11)
        CmPitch       : -9.31696e-07	(pressure: -9.42216e-07	viscous: 1.05198e-08)
        CmYaw       : 4.96234e-10	(pressure: 4.13098e-10	viscous: 8.31351e-11)
        Cd(f)    : 4.96222e-05
        Cd(r)    : 4.96245e-05
        Cs(f)    : 4.96234e-10
        Cs(r)    : -4.96234e-10
        Cl(f)    : 0.000110467
        Cl(r)    : 0.00011233
Time = 55

smoothSolver:  Solving for Ux, Initial residual = 0.00644813, Final residual = 0.000561737, No Iterations 5
smoothSolver:  Solving for Uy, Initial residual = 0.0108867, Final residual = 0.000784825, No Iterations 4
GAMG:  Solving for p, Initial residual = 0.0037513, Final residual = 0.000284396, No Iterations 5
time step continuity errors : sum local = 0.00286015, global = -0.00013168, cumulative = -0.0213019
ExecutionTime = 0.3 s  ClockTime = 0 s

forceCoeffs forceCoeffs execute:
    Coefficients
        Cd       : 9.90921e-05	(pressure: 8.2495e-05	viscous: 1.65972e-05)
        Cs       : 2.72161e-20	(pressure: 2.91737e-20	viscous: -1.95755e-21)
        Cl       : 0.000221222	(pressure: 0.00021367	viscous: 7.55204e-06)
        CmRoll       : -1.10611e-09	(pressure: -1.06835e-09	viscous: -3.77602e-11)
        CmPitch       : -9.23806e-07	(pressure: -9.34276e-07	viscous: 1.04703e-08)
        CmYaw       : 4.95461e-10	(pressure: 4.12475e-10	viscous: 8.29859e-11)
        Cd(f)    : 4.9545e-05
        Cd(r)    : 4.95472e-05
        Cs(f)    : 4.95461e-10
        Cs(r)    : -4.95461e-10
        Cl(f)    : 0.000109687
        Cl(r)    : 0.000111535
Time = 56

smoothSolver:  Solving for Ux, Initial residual = 0.00622069, Final residual = 0.000547867, No Iterations 5
smoothSolver:  Solving for Uy, Initial residual = 0.0105281, Final residual = 0.000764, No Iterations 4
GAMG:  Solving for p, Initial residual = 0.0036177, Final residual = 0.000273426, No Iterations 5
time step continuity errors : sum local = 0.00275082, global = -0.000111066, cumulative = -0.021413
ExecutionTime = 0.3 s  ClockTime = 0 s

forceCoeffs forceCoeffs execute:
    Coefficients
        Cd       : 9.89443e-05	(pressure: 8.23757e-05	viscous: 1.65686e-05)
        Cs       : 2.69921e-20	(pressure: 2.89322e-20	viscous: -1.94009e-21)
        Cl       : 0.000219703	(pressure: 0.000212156	viscous: 7.54664e-06)
        CmRoll       : -1.09851e-09	(pressure: -1.06078e-09	viscous: -3.77332e-11)
        CmPitch       : -9.16202e-07	(pressure: -9.26626e-07	viscous: 1.0424e-08)
        CmYaw       : 4.94721e-10	(pressure: 4.11879e-10	viscous: 8.2843e-11)
        Cd(f)    : 4.94711e-05
        Cd(r)    : 4.94732e-05
        Cs(f)    : 4.94721e-10
        Cs(r)    : -4.94721e-10
        Cl(f)    : 0.000108935
        Cl(r)    : 0.000110768
Time = 57

smoothSolver:  Solving for Ux, Initial residual = 0.00601141, Final residual = 0.000534386, No Iterations 5
smoothSolver:  Solving for Uy, Initial residual = 0.0101837, Final residual = 0.000744608, No Iterations 4
GAMG:  Solving for p, Initial residual = 0.00349014, Final residual = 0.000262471, No Iterations 5
time step continuity errors : sum local = 0.00264198, global = -9.34024e-05, cumulative = -0.0215064
ExecutionTime = 0.3 s  ClockTime = 0 s

forceCoeffs forceCoeffs execute:
    Coefficients
        Cd       : 9.88022e-05	(pressure: 8.2261e-05	viscous: 1.65412e-05)
        Cs       : 2.67764e-20	(pressure: 2.86998e-20	viscous: -1.92344e-21)
        Cl       : 0.000218239	(pressure: 0.000210698	viscous: 7.54124e-06)
        CmRoll       : -1.0912e-09	(pressure: -1.05349e-09	viscous: -3.77062e-11)
        CmPitch       : -9.08876e-07	(pressure: -9.19257e-07	viscous: 1.03811e-08)
        CmYaw       : 4.94011e-10	(pressure: 4.11305e-10	viscous: 8.27061e-11)
        Cd(f)    : 4.94e-05
        Cd(r)    : 4.94022e-05
        Cs(f)    : 4.94011e-10
        Cs(r)    : -4.94011e-10
        Cl(f)    : 0.000108211
        Cl(r)    : 0.000110028
Time = 58

smoothSolver:  Solving for Ux, Initial residual = 0.00581968, Final residual = 0.000522398, No Iterations 5
smoothSolver:  Solving for Uy, Initial residual = 0.00985691, Final residual = 0.000726168, No Iterations 4
GAMG:  Solving for p, Initial residual = 0.00337266, Final residual = 0.000251961, No Iterations 5
time step continuity errors : sum local = 0.00253777, global = -7.94122e-05, cumulative = -0.0215858
ExecutionTime = 0.32 s  ClockTime = 0 s

forceCoeffs forceCoeffs execute:
    Coefficients
        Cd       : 9.86657e-05	(pressure: 8.21508e-05	viscous: 1.6515e-05)
        Cs       : 2.65692e-20	(pressure: 2.84761e-20	viscous: -1.90695e-21)
        Cl       : 0.000216828	(pressure: 0.000209292	viscous: 7.53588e-06)
        CmRoll       : -1.08414e-09	(pressure: -1.04646e-09	viscous: -3.76794e-11)
        CmPitch       : -9.01813e-07	(pressure: -9.12154e-07	viscous: 1.03412e-08)
        CmYaw       : 4.93329e-10	(pressure: 4.10754e-10	viscous: 8.25749e-11)
        Cd(f)    : 4.93318e-05
        Cd(r)    : 4.93339e-05
        Cs(f)    : 4.93329e-10
        Cs(r)    : -4.93329e-10
        Cl(f)    : 0.000107512
        Cl(r)    : 0.000109316
Time = 59

smoothSolver:  Solving for Ux, Initial residual = 0.00564676, Final residual = 0.000510866, No Iterations 5
smoothSolver:  Solving for Uy, Initial residual = 0.00954381, Final residual = 0.000709288, No Iterations 4
GAMG:  Solving for p, Initial residual = 0.00326383, Final residual = 0.000242288, No Iterations 5
time step continuity errors : sum local = 0.00244198, global = -6.98547e-05, cumulative = -0.0216556
ExecutionTime = 0.32 s  ClockTime = 0 s

forceCoeffs forceCoeffs execute:
    Coefficients
        Cd       : 9.85334e-05	(pressure: 8.20437e-05	viscous: 1.64897e-05)
        Cs       : 2.63686e-20	(pressure: 2.82594e-20	viscous: -1.89079e-21)
        Cl       : 0.00021546	(pressure: 0.000207929	viscous: 7.53057e-06)
        CmRoll       : -1.0773e-09	(pressure: -1.03965e-09	viscous: -3.76528e-11)
        CmPitch       : -8.94965e-07	(pressure: -9.05269e-07	viscous: 1.0304e-08)
        CmYaw       : 4.92667e-10	(pressure: 4.10219e-10	viscous: 8.24483e-11)
        Cd(f)    : 4.92656e-05
        Cd(r)    : 4.92678e-05
        Cs(f)    : 4.92667e-10
        Cs(r)    : -4.92667e-10
        Cl(f)    : 0.000106835
        Cl(r)    : 0.000108625
Time = 60

smoothSolver:  Solving for Ux, Initial residual = 0.00549091, Final residual = 0.000499692, No Iterations 5
smoothSolver:  Solving for Uy, Initial residual = 0.00924998, Final residual = 0.000693392, No Iterations 4
GAMG:  Solving for p, Initial residual = 0.00316728, Final residual = 0.000233467, No Iterations 5
time step continuity errors : sum local = 0.00235464, global = -6.44549e-05, cumulative = -0.0217201
ExecutionTime = 0.32 s  ClockTime = 0 s

forceCoeffs forceCoeffs execute:
    Coefficients
        Cd       : 9.84049e-05	(pressure: 8.19397e-05	viscous: 1.64652e-05)
        Cs       : 2.61739e-20	(pressure: 2.80488e-20	viscous: -1.87493e-21)
        Cl       : 0.00021413	(pressure: 0.000206604	viscous: 7.5253e-06)
        CmRoll       : -1.07065e-09	(pressure: -1.03302e-09	viscous: -3.76265e-11)
        CmPitch       : -8.88305e-07	(pressure: -8.98574e-07	viscous: 1.02692e-08)
        CmYaw       : 4.92024e-10	(pressure: 4.09699e-10	viscous: 8.23258e-11)
        Cd(f)    : 4.92014e-05
        Cd(r)    : 4.92035e-05
        Cs(f)    : 4.92024e-10
        Cs(r)    : -4.92024e-10
        Cl(f)    : 0.000106177
        Cl(r)    : 0.000107953
Time = 61

smoothSolver:  Solving for Ux, Initial residual = 0.00534768, Final residual = 0.000489055, No Iterations 5
smoothSolver:  Solving for Uy, Initial residual = 0.00897874, Final residual = 0.000678078, No Iterations 4
GAMG:  Solving for p, Initial residual = 0.0030753, Final residual = 0.000225352, No Iterations 5
time step continuity errors : sum local = 0.00227426, global = -6.29402e-05, cumulative = -0.021783
ExecutionTime = 0.32 s  ClockTime = 0 s

forceCoeffs forceCoeffs execute:
    Coefficients
        Cd       : 9.82811e-05	(pressure: 8.18395e-05	viscous: 1.64415e-05)
        Cs       : 2.59846e-20	(pressure: 2.78445e-20	viscous: -1.85984e-21)
        Cl       : 0.000212837	(pressure: 0.000205317	viscous: 7.52006e-06)
        CmRoll       : -1.06418e-09	(pressure: -1.02658e-09	viscous: -3.76003e-11)
        CmPitch       : -8.81832e-07	(pressure: -8.92069e-07	viscous: 1.02369e-08)
        CmYaw       : 4.91405e-10	(pressure: 4.09198e-10	viscous: 8.22076e-11)
        Cd(f)    : 4.91395e-05
        Cd(r)    : 4.91416e-05
        Cs(f)    : 4.91405e-10
        Cs(r)    : -4.91405e-10
        Cl(f)    : 0.000105537
        Cl(r)    : 0.0001073
Time = 62

smoothSolver:  Solving for Ux, Initial residual = 0.00521335, Final residual = 0.000478757, No Iterations 5
smoothSolver:  Solving for Uy, Initial residual = 0.00872853, Final residual = 0.000663359, No Iterations 4
GAMG:  Solving for p, Initial residual = 0.00298976, Final residual = 0.000217932, No Iterations 5
time step continuity errors : sum local = 0.00220071, global = -6.45078e-05, cumulative = -0.0218475
ExecutionTime = 0.34 s  ClockTime = 0 s

forceCoeffs forceCoeffs execute:
    Coefficients
        Cd       : 9.81618e-05	(pressure: 8.17431e-05	viscous: 1.64188e-05)
        Cs       : 2.58007e-20	(pressure: 2.76461e-20	viscous: -1.84534e-21)
        Cl       : 0.00021158	(pressure: 0.000204066	viscous: 7.5148e-06)
        CmRoll       : -1.0579e-09	(pressure: -1.02033e-09	viscous: -3.7574e-11)
        CmPitch       : -8.75541e-07	(pressure: -8.85749e-07	viscous: 1.02074e-08)
        CmYaw       : 4.90809e-10	(pressure: 4.08715e-10	viscous: 8.20938e-11)
        Cd(f)    : 4.90799e-05
        Cd(r)    : 4.9082e-05
        Cs(f)    : 4.90809e-10
        Cs(r)    : -4.90809e-10
        Cl(f)    : 0.000104915
        Cl(r)    : 0.000106666
Time = 63

smoothSolver:  Solving for Ux, Initial residual = 0.0050867, Final residual = 0.000469177, No Iterations 5
smoothSolver:  Solving for Uy, Initial residual = 0.00848909, Final residual = 0.000649244, No Iterations 4
GAMG:  Solving for p, Initial residual = 0.00290713, Final residual = 0.000210952, No Iterations 5
time step continuity errors : sum local = 0.00213152, global = -6.818e-05, cumulative = -0.0219157
ExecutionTime = 0.34 s  ClockTime = 0 s

forceCoeffs forceCoeffs execute:
    Coefficients
        Cd       : 9.80473e-05	(pressure: 8.16505e-05	viscous: 1.63968e-05)
        Cs       : 2.56223e-20	(pressure: 2.74537e-20	viscous: -1.83133e-21)
        Cl       : 0.00021036	(pressure: 0.000202851	viscous: 7.50953e-06)
        CmRoll       : -1.0518e-09	(pressure: -1.01425e-09	viscous: -3.75477e-11)
        CmPitch       : -8.69435e-07	(pressure: -8.79615e-07	viscous: 1.01804e-08)
        CmYaw       : 4.90237e-10	(pressure: 4.08252e-10	viscous: 8.19842e-11)
        Cd(f)    : 4.90226e-05
        Cd(r)    : 4.90247e-05
        Cs(f)    : 4.90237e-10
        Cs(r)    : -4.90237e-10
        Cl(f)    : 0.000104311
        Cl(r)    : 0.000106049
Time = 64

smoothSolver:  Solving for Ux, Initial residual = 0.004969, Final residual = 0.000460335, No Iterations 5
smoothSolver:  Solving for Uy, Initial residual = 0.00826407, Final residual = 0.000635391, No Iterations 4
GAMG:  Solving for p, Initial residual = 0.0028291, Final residual = 0.000204292, No Iterations 5
time step continuity errors : sum local = 0.00206546, global = -7.29608e-05, cumulative = -0.0219887
ExecutionTime = 0.34 s  ClockTime = 0 s

forceCoeffs forceCoeffs execute:
    Coefficients
        Cd       : 9.79374e-05	(pressure: 8.15617e-05	viscous: 1.63757e-05)
        Cs       : 2.54494e-20	(pressure: 2.72672e-20	viscous: -1.81785e-21)
        Cl       : 0.000209176	(pressure: 0.000201672	viscous: 7.50428e-06)
        CmRoll       : -1.04588e-09	(pressure: -1.00836e-09	viscous: -3.75214e-11)
        CmPitch       : -8.63512e-07	(pressure: -8.73668e-07	viscous: 1.01559e-08)
        CmYaw       : 4.89687e-10	(pressure: 4.07808e-10	viscous: 8.18787e-11)
        Cd(f)    : 4.89677e-05
        Cd(r)    : 4.89698e-05
        Cs(f)    : 4.89687e-10
        Cs(r)    : -4.89687e-10
        Cl(f)    : 0.000103725
        Cl(r)    : 0.000105452
Time = 65

smoothSolver:  Solving for Ux, Initial residual = 0.00485857, Final residual = 0.000451842, No Iterations 5
smoothSolver:  Solving for Uy, Initial residual = 0.00806463, Final residual = 0.000622032, No Iterations 4
GAMG:  Solving for p, Initial residual = 0.00275589, Final residual = 0.000197907, No Iterations 5
time step continuity errors : sum local = 0.00200208, global = -7.80235e-05, cumulative = -0.0220667
ExecutionTime = 0.34 s  ClockTime = 0 s

forceCoeffs forceCoeffs execute:
    Coefficients
        Cd       : 9.78318e-05	(pressure: 8.14764e-05	viscous: 1.63554e-05)
        Cs       : 2.52818e-20	(pressure: 2.70866e-20	viscous: -1.80477e-21)
        Cl       : 0.000208028	(pressure: 0.000200529	viscous: 7.49907e-06)
        CmRoll       : -1.04014e-09	(pressure: -1.00264e-09	viscous: -3.74954e-11)
        CmPitch       : -8.57769e-07	(pressure: -8.67902e-07	viscous: 1.01335e-08)
        CmYaw       : 4.89159e-10	(pressure: 4.07382e-10	viscous: 8.1777e-11)
        Cd(f)    : 4.89149e-05
        Cd(r)    : 4.8917e-05
        Cs(f)    : 4.89159e-10
        Cs(r)    : -4.89159e-10
        Cl(f)    : 0.000103156
        Cl(r)    : 0.000104872
Time = 66

smoothSolver:  Solving for Ux, Initial residual = 0.00475219, Final residual = 0.000443671, No Iterations 5
smoothSolver:  Solving for Uy, Initial residual = 0.00788178, Final residual = 0.000609636, No Iterations 4
GAMG:  Solving for p, Initial residual = 0.00268736, Final residual = 0.000191789, No Iterations 5
time step continuity errors : sum local = 0.00194131, global = -8.28625e-05, cumulative = -0.0221496
ExecutionTime = 0.36 s  ClockTime = 0 s

forceCoeffs forceCoeffs execute:
    Coefficients
        Cd       : 9.77302e-05	(pressure: 8.13944e-05	viscous: 1.63358e-05)
        Cs       : 2.51194e-20	(pressure: 2.69115e-20	viscous: -1.79207e-21)
        Cl       : 0.000206914	(pressure: 0.00019942	viscous: 7.49392e-06)
        CmRoll       : -1.03457e-09	(pressure: -9.97099e-10	viscous: -3.74696e-11)
        CmPitch       : -8.52199e-07	(pressure: -8.62312e-07	viscous: 1.01128e-08)
        CmYaw       : 4.88651e-10	(pressure: 4.06972e-10	viscous: 8.1679e-11)
        Cd(f)    : 4.88641e-05
        Cd(r)    : 4.88662e-05
        Cs(f)    : 4.88651e-10
        Cs(r)    : -4.88651e-10
        Cl(f)    : 0.000102605
        Cl(r)    : 0.000104309
Time = 67

smoothSolver:  Solving for Ux, Initial residual = 0.00465103, Final residual = 0.000435817, No Iterations 5
smoothSolver:  Solving for Uy, Initial residual = 0.00770456, Final residual = 0.000597729, No Iterations 4
GAMG:  Solving for p, Initial residual = 0.00262181, Final residual = 0.000185944, No Iterations 5
time step continuity errors : sum local = 0.00188322, global = -8.71922e-05, cumulative = -0.0222367
ExecutionTime = 0.36 s  ClockTime = 0 s

forceCoeffs forceCoeffs execute:
    Coefficients
        Cd       : 9.76325e-05	(pressure: 8.13156e-05	viscous: 1.63169e-05)
        Cs       : 2.4962e-20	(pressure: 2.67418e-20	viscous: -1.77974e-21)
        Cl       : 0.000205833	(pressure: 0.000198344	viscous: 7.48886e-06)
        CmRoll       : -1.02917e-09	(pressure: -9.91722e-10	viscous: -3.74443e-11)
        CmPitch       : -8.46797e-07	(pressure: -8.56891e-07	viscous: 1.00937e-08)
        CmYaw       : 4.88162e-10	(pressure: 4.06578e-10	viscous: 8.15845e-11)
        Cd(f)    : 4.88152e-05
        Cd(r)    : 4.88173e-05
[...]
smoothSolver:  Solving for Uy, Initial residual = 1.2067e-06, Final residual = 5.31321e-07, No Iterations 1
GAMG:  Solving for p, Initial residual = 1.16878e-06, Final residual = 4.95996e-07, No Iterations 2
time step continuity errors : sum local = 4.73925e-06, global = 1.66128e-08, cumulative = -0.0235554
ExecutionTime = 6.15 s  ClockTime = 6 s

forceCoeffs forceCoeffs execute:
    Coefficients
        Cd       : 9.67139e-05	(pressure: 8.054e-05	viscous: 1.61739e-05)
        Cs       : 2.22675e-20	(pressure: 2.37168e-20	viscous: -1.44929e-21)
        Cl       : 0.00018389	(pressure: 0.000176499	viscous: 7.39122e-06)
        CmRoll       : -9.19452e-10	(pressure: -8.82496e-10	viscous: -3.69561e-11)
        CmPitch       : -7.39878e-07	(pressure: -7.50121e-07	viscous: 1.02434e-08)
        CmYaw       : 4.8357e-10	(pressure: 4.027e-10	viscous: 8.08696e-11)
        Cd(f)    : 4.83561e-05
        Cd(r)    : 4.83579e-05
        Cs(f)    : 4.8357e-10
        Cs(r)    : -4.8357e-10
        Cl(f)    : 9.12053e-05
        Cl(r)    : 9.26851e-05
Time = 1317

smoothSolver:  Solving for Ux, Initial residual = 1.38491e-06, Final residual = 6.11437e-07, No Iterations 1
smoothSolver:  Solving for Uy, Initial residual = 1.97118e-06, Final residual = 8.341e-07, No Iterations 1
GAMG:  Solving for p, Initial residual = 8.81837e-07, Final residual = 8.81837e-07, No Iterations 0
time step continuity errors : sum local = 8.42597e-06, global = 7.38727e-08, cumulative = -0.0235553
ExecutionTime = 6.15 s  ClockTime = 6 s

forceCoeffs forceCoeffs execute:
    Coefficients
        Cd       : 9.6714e-05	(pressure: 8.054e-05	viscous: 1.61739e-05)
        Cs       : 2.22675e-20	(pressure: 2.37168e-20	viscous: -1.44928e-21)
        Cl       : 0.00018389	(pressure: 0.000176499	viscous: 7.39122e-06)
        CmRoll       : -9.19452e-10	(pressure: -8.82496e-10	viscous: -3.69561e-11)
        CmPitch       : -7.39878e-07	(pressure: -7.50121e-07	viscous: 1.02434e-08)
        CmYaw       : 4.8357e-10	(pressure: 4.027e-10	viscous: 8.08696e-11)
        Cd(f)    : 4.83561e-05
        Cd(r)    : 4.83579e-05
        Cs(f)    : 4.8357e-10
        Cs(r)    : -4.8357e-10
        Cl(f)    : 9.12053e-05
        Cl(r)    : 9.26851e-05
Time = 1318

smoothSolver:  Solving for Ux, Initial residual = 1.24049e-06, Final residual = 6.12655e-07, No Iterations 1
smoothSolver:  Solving for Uy, Initial residual = 1.54215e-06, Final residual = 7.14464e-07, No Iterations 1
GAMG:  Solving for p, Initial residual = 1.15181e-06, Final residual = 5.09866e-07, No Iterations 2
time step continuity errors : sum local = 4.87177e-06, global = -1.31934e-07, cumulative = -0.0235554
ExecutionTime = 6.16 s  ClockTime = 6 s

forceCoeffs forceCoeffs execute:
    Coefficients
        Cd       : 9.67139e-05	(pressure: 8.054e-05	viscous: 1.61739e-05)
        Cs       : 2.22675e-20	(pressure: 2.37168e-20	viscous: -1.44929e-21)
        Cl       : 0.00018389	(pressure: 0.000176499	viscous: 7.39122e-06)
        CmRoll       : -9.19452e-10	(pressure: -8.82496e-10	viscous: -3.69561e-11)
        CmPitch       : -7.39878e-07	(pressure: -7.50121e-07	viscous: 1.02434e-08)
        CmYaw       : 4.8357e-10	(pressure: 4.027e-10	viscous: 8.08696e-11)
        Cd(f)    : 4.8356e-05
        Cd(r)    : 4.83579e-05
        Cs(f)    : 4.8357e-10
        Cs(r)    : -4.8357e-10
        Cl(f)    : 9.12054e-05
        Cl(r)    : 9.26851e-05
Time = 1319

smoothSolver:  Solving for Ux, Initial residual = 1.29353e-06, Final residual = 5.77567e-07, No Iterations 1
smoothSolver:  Solving for Uy, Initial residual = 1.9096e-06, Final residual = 7.96087e-07, No Iterations 1
GAMG:  Solving for p, Initial residual = 8.80113e-07, Final residual = 8.80113e-07, No Iterations 0
time step continuity errors : sum local = 8.40948e-06, global = -1.15982e-08, cumulative = -0.0235554
ExecutionTime = 6.16 s  ClockTime = 6 s

forceCoeffs forceCoeffs execute:
    Coefficients
        Cd       : 9.67139e-05	(pressure: 8.054e-05	viscous: 1.61739e-05)
        Cs       : 2.22675e-20	(pressure: 2.37168e-20	viscous: -1.44928e-21)
        Cl       : 0.00018389	(pressure: 0.000176499	viscous: 7.39122e-06)
        CmRoll       : -9.19452e-10	(pressure: -8.82496e-10	viscous: -3.69561e-11)
        CmPitch       : -7.39878e-07	(pressure: -7.50121e-07	viscous: 1.02434e-08)
        CmYaw       : 4.8357e-10	(pressure: 4.027e-10	viscous: 8.08696e-11)
        Cd(f)    : 4.8356e-05
        Cd(r)    : 4.83579e-05
        Cs(f)    : 4.8357e-10
        Cs(r)    : -4.8357e-10
        Cl(f)    : 9.12054e-05
        Cl(r)    : 9.26851e-05
Time = 1320

smoothSolver:  Solving for Ux, Initial residual = 1.11383e-06, Final residual = 5.9143e-07, No Iterations 1
smoothSolver:  Solving for Uy, Initial residual = 1.45793e-06, Final residual = 6.68216e-07, No Iterations 1
GAMG:  Solving for p, Initial residual = 1.14894e-06, Final residual = 9.50849e-07, No Iterations 1
time step continuity errors : sum local = 9.08537e-06, global = 2.61466e-07, cumulative = -0.0235552
ExecutionTime = 6.16 s  ClockTime = 6 s

forceCoeffs forceCoeffs execute:
    Coefficients
        Cd       : 9.6714e-05	(pressure: 8.054e-05	viscous: 1.61739e-05)
        Cs       : 2.22675e-20	(pressure: 2.37168e-20	viscous: -1.4493e-21)
        Cl       : 0.000183891	(pressure: 0.000176499	viscous: 7.39122e-06)
        CmRoll       : -9.19453e-10	(pressure: -8.82497e-10	viscous: -3.69561e-11)
        CmPitch       : -7.39878e-07	(pressure: -7.50122e-07	viscous: 1.02434e-08)
        CmYaw       : 4.8357e-10	(pressure: 4.027e-10	viscous: 8.08696e-11)
        Cd(f)    : 4.83561e-05
        Cd(r)    : 4.83579e-05
        Cs(f)    : 4.8357e-10
        Cs(r)    : -4.8357e-10
        Cl(f)    : 9.12054e-05
        Cl(r)    : 9.26852e-05
Time = 1321

smoothSolver:  Solving for Ux, Initial residual = 1.51058e-06, Final residual = 5.54646e-07, No Iterations 1
smoothSolver:  Solving for Uy, Initial residual = 1.63546e-06, Final residual = 6.10295e-07, No Iterations 1
GAMG:  Solving for p, Initial residual = 8.99863e-07, Final residual = 8.99863e-07, No Iterations 0
time step continuity errors : sum local = 8.5982e-06, global = 1.93494e-07, cumulative = -0.023555
ExecutionTime = 6.16 s  ClockTime = 6 s

forceCoeffs forceCoeffs execute:
    Coefficients
        Cd       : 9.6714e-05	(pressure: 8.054e-05	viscous: 1.61739e-05)
        Cs       : 2.22675e-20	(pressure: 2.37168e-20	viscous: -1.44929e-21)
        Cl       : 0.000183891	(pressure: 0.000176499	viscous: 7.39122e-06)
        CmRoll       : -9.19453e-10	(pressure: -8.82497e-10	viscous: -3.69561e-11)
        CmPitch       : -7.39878e-07	(pressure: -7.50122e-07	viscous: 1.02434e-08)
        CmYaw       : 4.8357e-10	(pressure: 4.027e-10	viscous: 8.08696e-11)
        Cd(f)    : 4.83561e-05
        Cd(r)    : 4.83579e-05
        Cs(f)    : 4.8357e-10
        Cs(r)    : -4.8357e-10
        Cl(f)    : 9.12054e-05
        Cl(r)    : 9.26852e-05
Time = 1322

smoothSolver:  Solving for Ux, Initial residual = 1.26382e-06, Final residual = 5.65372e-07, No Iterations 1
smoothSolver:  Solving for Uy, Initial residual = 1.16623e-06, Final residual = 5.26041e-07, No Iterations 1
GAMG:  Solving for p, Initial residual = 1.13511e-06, Final residual = 9.65307e-07, No Iterations 1
time step continuity errors : sum local = 9.22352e-06, global = 3.26386e-08, cumulative = -0.023555
ExecutionTime = 6.18 s  ClockTime = 6 s

forceCoeffs forceCoeffs execute:
    Coefficients
        Cd       : 9.6714e-05	(pressure: 8.05401e-05	viscous: 1.61739e-05)
        Cs       : 2.22675e-20	(pressure: 2.37168e-20	viscous: -1.4493e-21)
        Cl       : 0.000183891	(pressure: 0.0001765	viscous: 7.39122e-06)
        CmRoll       : -9.19454e-10	(pressure: -8.82498e-10	viscous: -3.69561e-11)
        CmPitch       : -7.3988e-07	(pressure: -7.50123e-07	viscous: 1.02434e-08)
        CmYaw       : 4.8357e-10	(pressure: 4.027e-10	viscous: 8.08696e-11)
        Cd(f)    : 4.83561e-05
        Cd(r)    : 4.83579e-05
        Cs(f)    : 4.8357e-10
        Cs(r)    : -4.8357e-10
        Cl(f)    : 9.12055e-05
        Cl(r)    : 9.26853e-05
Time = 1323

smoothSolver:  Solving for Ux, Initial residual = 1.62021e-06, Final residual = 5.16124e-07, No Iterations 1
smoothSolver:  Solving for Uy, Initial residual = 1.71427e-06, Final residual = 5.72728e-07, No Iterations 1
GAMG:  Solving for p, Initial residual = 9.26088e-07, Final residual = 9.26088e-07, No Iterations 0
time step continuity errors : sum local = 8.84877e-06, global = 1.91308e-07, cumulative = -0.0235548
ExecutionTime = 6.18 s  ClockTime = 6 s

forceCoeffs forceCoeffs execute:
    Coefficients
        Cd       : 9.6714e-05	(pressure: 8.05401e-05	viscous: 1.61739e-05)
        Cs       : 2.22676e-20	(pressure: 2.37168e-20	viscous: -1.44929e-21)
        Cl       : 0.000183891	(pressure: 0.0001765	viscous: 7.39122e-06)
        CmRoll       : -9.19454e-10	(pressure: -8.82498e-10	viscous: -3.69561e-11)
        CmPitch       : -7.3988e-07	(pressure: -7.50123e-07	viscous: 1.02434e-08)
        CmYaw       : 4.8357e-10	(pressure: 4.027e-10	viscous: 8.08697e-11)
        Cd(f)    : 4.83561e-05
        Cd(r)    : 4.83579e-05
        Cs(f)    : 4.8357e-10
        Cs(r)    : -4.8357e-10
        Cl(f)    : 9.12055e-05
        Cl(r)    : 9.26853e-05
Time = 1324

smoothSolver:  Solving for Ux, Initial residual = 1.20211e-06, Final residual = 5.16439e-07, No Iterations 1
smoothSolver:  Solving for Uy, Initial residual = 1.18171e-06, Final residual = 4.83919e-07, No Iterations 1
GAMG:  Solving for p, Initial residual = 1.13549e-06, Final residual = 9.2668e-07, No Iterations 1
time step continuity errors : sum local = 8.85443e-06, global = -4.7698e-08, cumulative = -0.0235548
ExecutionTime = 6.18 s  ClockTime = 6 s

forceCoeffs forceCoeffs execute:
    Coefficients
        Cd       : 9.67141e-05	(pressure: 8.05401e-05	viscous: 1.61739e-05)
        Cs       : 2.22676e-20	(pressure: 2.37169e-20	viscous: -1.4493e-21)
        Cl       : 0.000183891	(pressure: 0.0001765	viscous: 7.39122e-06)
        CmRoll       : -9.19455e-10	(pressure: -8.82499e-10	viscous: -3.69561e-11)
        CmPitch       : -7.39881e-07	(pressure: -7.50124e-07	viscous: 1.02434e-08)
        CmYaw       : 4.8357e-10	(pressure: 4.02701e-10	viscous: 8.08697e-11)
        Cd(f)    : 4.83561e-05
        Cd(r)    : 4.83579e-05
        Cs(f)    : 4.8357e-10
        Cs(r)    : -4.8357e-10
        Cl(f)    : 9.12056e-05
        Cl(r)    : 9.26854e-05
Time = 1325

smoothSolver:  Solving for Ux, Initial residual = 1.43228e-06, Final residual = 4.76401e-07, No Iterations 1
smoothSolver:  Solving for Uy, Initial residual = 1.62783e-06, Final residual = 5.47779e-07, No Iterations 1
GAMG:  Solving for p, Initial residual = 9.45091e-07, Final residual = 9.45091e-07, No Iterations 0
time step continuity errors : sum local = 9.03034e-06, global = 1.3746e-07, cumulative = -0.0235547
ExecutionTime = 6.18 s  ClockTime = 6 s

forceCoeffs forceCoeffs execute:
    Coefficients
        Cd       : 9.67141e-05	(pressure: 8.05401e-05	viscous: 1.61739e-05)
        Cs       : 2.22676e-20	(pressure: 2.37169e-20	viscous: -1.44929e-21)
        Cl       : 0.000183891	(pressure: 0.0001765	viscous: 7.39122e-06)
        CmRoll       : -9.19455e-10	(pressure: -8.82499e-10	viscous: -3.69561e-11)
        CmPitch       : -7.39881e-07	(pressure: -7.50124e-07	viscous: 1.02434e-08)
        CmYaw       : 4.8357e-10	(pressure: 4.02701e-10	viscous: 8.08697e-11)
        Cd(f)    : 4.83561e-05
        Cd(r)    : 4.83579e-05
        Cs(f)    : 4.8357e-10
        Cs(r)    : -4.8357e-10
        Cl(f)    : 9.12056e-05
        Cl(r)    : 9.26854e-05
Time = 1326

smoothSolver:  Solving for Ux, Initial residual = 1.05765e-06, Final residual = 4.62738e-07, No Iterations 1
smoothSolver:  Solving for Uy, Initial residual = 1.13718e-06, Final residual = 4.56784e-07, No Iterations 1
GAMG:  Solving for p, Initial residual = 1.12719e-06, Final residual = 9.29431e-07, No Iterations 1
time step continuity errors : sum local = 8.88071e-06, global = -4.76257e-08, cumulative = -0.0235547
ExecutionTime = 6.19 s  ClockTime = 6 s

forceCoeffs forceCoeffs execute:
    Coefficients
        Cd       : 9.6714e-05	(pressure: 8.05401e-05	viscous: 1.61739e-05)
        Cs       : 2.22676e-20	(pressure: 2.37169e-20	viscous: -1.4493e-21)
        Cl       : 0.000183891	(pressure: 0.0001765	viscous: 7.39122e-06)
        CmRoll       : -9.19456e-10	(pressure: -8.825e-10	viscous: -3.69561e-11)
        CmPitch       : -7.39881e-07	(pressure: -7.50125e-07	viscous: 1.02434e-08)
        CmYaw       : 4.8357e-10	(pressure: 4.02701e-10	viscous: 8.08696e-11)
        Cd(f)    : 4.83561e-05
        Cd(r)    : 4.83579e-05
        Cs(f)    : 4.8357e-10
        Cs(r)    : -4.8357e-10
        Cl(f)    : 9.12057e-05
        Cl(r)    : 9.26855e-05
Time = 1327

smoothSolver:  Solving for Ux, Initial residual = 1.24512e-06, Final residual = 4.45138e-07, No Iterations 1
smoothSolver:  Solving for Uy, Initial residual = 1.5581e-06, Final residual = 5.88292e-07, No Iterations 1
GAMG:  Solving for p, Initial residual = 9.1238e-07, Final residual = 9.1238e-07, No Iterations 0
time step continuity errors : sum local = 8.71779e-06, global = 3.37896e-08, cumulative = -0.0235547
ExecutionTime = 6.19 s  ClockTime = 6 s

forceCoeffs forceCoeffs execute:
    Coefficients
        Cd       : 9.6714e-05	(pressure: 8.05401e-05	viscous: 1.61739e-05)
        Cs       : 2.22676e-20	(pressure: 2.37169e-20	viscous: -1.44929e-21)
        Cl       : 0.000183891	(pressure: 0.0001765	viscous: 7.39122e-06)
        CmRoll       : -9.19456e-10	(pressure: -8.825e-10	viscous: -3.69561e-11)
        CmPitch       : -7.39882e-07	(pressure: -7.50125e-07	viscous: 1.02434e-08)
        CmYaw       : 4.8357e-10	(pressure: 4.02701e-10	viscous: 8.08696e-11)
        Cd(f)    : 4.83561e-05
        Cd(r)    : 4.83579e-05
        Cs(f)    : 4.8357e-10
        Cs(r)    : -4.8357e-10
        Cl(f)    : 9.12057e-05
        Cl(r)    : 9.26855e-05
Time = 1328

smoothSolver:  Solving for Ux, Initial residual = 9.8535e-07, Final residual = 9.8535e-07, No Iterations 0
smoothSolver:  Solving for Uy, Initial residual = 1.15471e-06, Final residual = 5.05572e-07, No Iterations 1
GAMG:  Solving for p, Initial residual = 1.07612e-06, Final residual = 7.835e-07, No Iterations 1
time step continuity errors : sum local = 7.48634e-06, global = 2.36679e-08, cumulative = -0.0235547
ExecutionTime = 6.19 s  ClockTime = 6 s

forceCoeffs forceCoeffs execute:
    Coefficients
        Cd       : 9.6714e-05	(pressure: 8.05401e-05	viscous: 1.61739e-05)
        Cs       : 2.22676e-20	(pressure: 2.37169e-20	viscous: -1.4493e-21)
        Cl       : 0.000183891	(pressure: 0.0001765	viscous: 7.39122e-06)
        CmRoll       : -9.19456e-10	(pressure: -8.82499e-10	viscous: -3.69561e-11)
        CmPitch       : -7.39881e-07	(pressure: -7.50125e-07	viscous: 1.02434e-08)
        CmYaw       : 4.8357e-10	(pressure: 4.027e-10	viscous: 8.08696e-11)
        Cd(f)    : 4.83561e-05
        Cd(r)    : 4.83579e-05
        Cs(f)    : 4.8357e-10
        Cs(r)    : -4.8357e-10
        Cl(f)    : 9.12057e-05
        Cl(r)    : 9.26854e-05
Time = 1329

smoothSolver:  Solving for Ux, Initial residual = 1.15735e-06, Final residual = 4.75162e-07, No Iterations 1
smoothSolver:  Solving for Uy, Initial residual = 1.41588e-06, Final residual = 5.30504e-07, No Iterations 1
GAMG:  Solving for p, Initial residual = 9.04035e-07, Final residual = 9.04035e-07, No Iterations 0
time step continuity errors : sum local = 8.63805e-06, global = -7.82868e-10, cumulative = -0.0235547
ExecutionTime = 6.19 s  ClockTime = 6 s

forceCoeffs forceCoeffs execute:
    Coefficients
        Cd       : 9.6714e-05	(pressure: 8.05401e-05	viscous: 1.61739e-05)
        Cs       : 2.22676e-20	(pressure: 2.37169e-20	viscous: -1.4493e-21)
        Cl       : 0.000183891	(pressure: 0.0001765	viscous: 7.39122e-06)
        CmRoll       : -9.19456e-10	(pressure: -8.82499e-10	viscous: -3.69561e-11)
        CmPitch       : -7.39881e-07	(pressure: -7.50125e-07	viscous: 1.02434e-08)
        CmYaw       : 4.8357e-10	(pressure: 4.027e-10	viscous: 8.08696e-11)
        Cd(f)    : 4.83561e-05
        Cd(r)    : 4.83579e-05
        Cs(f)    : 4.8357e-10
        Cs(r)    : -4.8357e-10
        Cl(f)    : 9.12057e-05
        Cl(r)    : 9.26854e-05
Time = 1330

smoothSolver:  Solving for Ux, Initial residual = 9.77423e-07, Final residual = 9.77423e-07, No Iterations 0
smoothSolver:  Solving for Uy, Initial residual = 1.00032e-06, Final residual = 4.65277e-07, No Iterations 1
GAMG:  Solving for p, Initial residual = 1.09892e-06, Final residual = 8.42013e-07, No Iterations 1
time step continuity errors : sum local = 8.04543e-06, global = 1.68496e-07, cumulative = -0.0235545
ExecutionTime = 6.19 s  ClockTime = 6 s

forceCoeffs forceCoeffs execute:
    Coefficients
        Cd       : 9.6714e-05	(pressure: 8.05401e-05	viscous: 1.61739e-05)
        Cs       : 2.22676e-20	(pressure: 2.37169e-20	viscous: -1.44929e-21)
        Cl       : 0.000183891	(pressure: 0.0001765	viscous: 7.39122e-06)
        CmRoll       : -9.19455e-10	(pressure: -8.82499e-10	viscous: -3.69561e-11)
        CmPitch       : -7.3988e-07	(pressure: -7.50124e-07	viscous: 1.02434e-08)
        CmYaw       : 4.8357e-10	(pressure: 4.027e-10	viscous: 8.08696e-11)
        Cd(f)    : 4.83561e-05
        Cd(r)    : 4.83579e-05
        Cs(f)    : 4.8357e-10
        Cs(r)    : -4.8357e-10
        Cl(f)    : 9.12056e-05
        Cl(r)    : 9.26854e-05
Time = 1331

smoothSolver:  Solving for Ux, Initial residual = 1.02848e-06, Final residual = 4.67545e-07, No Iterations 1
smoothSolver:  Solving for Uy, Initial residual = 1.27321e-06, Final residual = 5.37085e-07, No Iterations 1
GAMG:  Solving for p, Initial residual = 8.68847e-07, Final residual = 8.68847e-07, No Iterations 0
time step continuity errors : sum local = 8.30182e-06, global = 4.52257e-08, cumulative = -0.0235545
ExecutionTime = 6.21 s  ClockTime = 6 s

forceCoeffs forceCoeffs execute:
    Coefficients
        Cd       : 9.6714e-05	(pressure: 8.05401e-05	viscous: 1.61739e-05)
        Cs       : 2.22676e-20	(pressure: 2.37169e-20	viscous: -1.44929e-21)
        Cl       : 0.000183891	(pressure: 0.0001765	viscous: 7.39122e-06)
        CmRoll       : -9.19455e-10	(pressure: -8.82499e-10	viscous: -3.69561e-11)
        CmPitch       : -7.3988e-07	(pressure: -7.50124e-07	viscous: 1.02434e-08)
        CmYaw       : 4.8357e-10	(pressure: 4.027e-10	viscous: 8.08696e-11)
        Cd(f)    : 4.83561e-05
        Cd(r)    : 4.83579e-05
        Cs(f)    : 4.8357e-10
        Cs(r)    : -4.8357e-10
        Cl(f)    : 9.12056e-05
        Cl(r)    : 9.26854e-05
Time = 1332

smoothSolver:  Solving for Ux, Initial residual = 9.36508e-07, Final residual = 9.36508e-07, No Iterations 0
smoothSolver:  Solving for Uy, Initial residual = 9.89776e-07, Final residual = 9.89776e-07, No Iterations 0
GAMG:  Solving for p, Initial residual = 9.90363e-07, Final residual = 9.90363e-07, No Iterations 0
time step continuity errors : sum local = 9.4629e-06, global = 4.45757e-08, cumulative = -0.0235544
ExecutionTime = 6.21 s  ClockTime = 6 s


SIMPLE solution converged in 1332 iterations

forceCoeffs forceCoeffs execute:
    Coefficients
        Cd       : 9.6714e-05	(pressure: 8.05401e-05	viscous: 1.61739e-05)
        Cs       : 2.22676e-20	(pressure: 2.37169e-20	viscous: -1.44929e-21)
        Cl       : 0.000183891	(pressure: 0.0001765	viscous: 7.39122e-06)
        CmRoll       : -9.19455e-10	(pressure: -8.82499e-10	viscous: -3.69561e-11)
        CmPitch       : -7.3988e-07	(pressure: -7.50124e-07	viscous: 1.02434e-08)
        CmYaw       : 4.8357e-10	(pressure: 4.027e-10	viscous: 8.08696e-11)
        Cd(f)    : 4.83561e-05
        Cd(r)    : 4.83579e-05
        Cs(f)    : 4.8357e-10
        Cs(r)    : -4.8357e-10
        Cl(f)    : 9.12056e-05
        Cl(r)    : 9.26854e-05
End

