/*---------------------------------------------------------------------------*\
| =========                 |                                                 |
| \\      /  F ield         | OpenFOAM: The Open Source CFD Toolbox           |
|  \\    /   O peration     | Version:  v1912                                 |
|   \\  /    A nd           | Website:  www.openfoam.com                      |
|    \\/     M anipulation  |                                                 |
\*---------------------------------------------------------------------------*/
Build  : _f3950763fe-20191219 OPENFOAM=1912
Arch   : "LSB;label=32;scalar=64"
Exec   : simpleFoam
Date   : Jun 22 2020
Time   : 21:50:15
Host   : DESKTOP-7S8DQ3L
PID    : 1818
I/O    : uncollated
Case   : /home/logankp/OpenFOAM/logankp-v1912/run/CFD/SA-flat-plate
nProcs : 1
trapFpe: Floating point exception trapping enabled (FOAM_SIGFPE).
fileModificationChecking : Monitoring run-time modified files using timeStampMaster (fileModificationSkew 10)
allowSystemOperations : Allowing user-supplied system call operations

// * * * * * * * * * * * * * * * * * * * * * * * * * * * * * * * * * * * * * //
Create time

Create mesh for time = 0


SIMPLE: convergence criteria
    field p	 tolerance 1e-05
    field U	 tolerance 1e-06
    field "(k|epsilon|omega|nuTilda|f|v2)"	 tolerance 1e-06

Reading field p

Reading field U

Reading/calculating face flux field phi

Selecting incompressible transport model Newtonian
Selecting turbulence model type RAS
Selecting RAS turbulence model SpalartAllmaras
Selecting patchDistMethod meshWave
RAS
{
    RASModel        SpalartAllmaras;
    turbulence      on;
    printCoeffs     on;
    sigmaNut        0.66666;
    kappa           0.41;
    Cb1             0.1355;
    Cb2             0.622;
    Cw2             0.3;
    Cw3             2;
    Cv1             7.1;
    Cs              0.3;
}

No MRF models present

No finite volume options present

Starting time loop

forceCoeffs forceCoeffs:
    rho: rhoInf
    Freestream density (rhoInf) set to 1.2255
    Not including porosity effects

forces forces:
--> FOAM Warning : 
    From function Foam::labelHashSet Foam::polyBoundaryMesh::patchSet(const Foam::UList<Foam::wordRe>&, bool, bool) const
    in file meshes/polyMesh/polyBoundaryMesh/polyBoundaryMesh.C at line 891
    Cannot find any patch or group names matching wing
    rho: rhoInf
    Freestream density (rhoInf) set to 1
    Not including porosity effects

Time = 1

smoothSolver:  Solving for Ux, Initial residual = 1, Final residual = 0.0804658, No Iterations 10
smoothSolver:  Solving for Uy, Initial residual = 1, Final residual = 0.0691709, No Iterations 8
GAMG:  Solving for p, Initial residual = 1, Final residual = 0.0739406, No Iterations 3
time step continuity errors : sum local = 3.11703e-05, global = -2.62875e-06, cumulative = -2.62875e-06
smoothSolver:  Solving for nuTilda, Initial residual = 1, Final residual = 0.0463356, No Iterations 2
ExecutionTime = 0.15 s  ClockTime = 0 s

forceCoeffs forceCoeffs execute:
    Coefficients
        Cd       : 0.00711982	(pressure: 0	viscous: 0.00711982)
        Cs       : 0	(pressure: 0	viscous: 0)
        Cl       : 1.54379e-05	(pressure: 1.40364e-05	viscous: 1.40157e-06)
        CmRoll       : -9.6487e-09	(pressure: -8.77272e-09	viscous: -8.75983e-10)
        CmPitch       : 1.47393e-05	(pressure: 1.47505e-05	viscous: -1.11594e-08)
        CmYaw       : 4.44989e-06	(pressure: 0	viscous: 4.44989e-06)
        Cd(f)    : 0.0035599
        Cd(r)    : 0.00355992
        Cs(f)    : 4.44989e-06
        Cs(r)    : -4.44989e-06
        Cl(f)    : 2.24583e-05
        Cl(r)    : -7.02033e-06
forces forces write:
    Sum of forces
        Total    : (0 0 0)
        Pressure : (0 0 0)
        Viscous  : (0 0 0)
    Sum of moments
        Total    : (0 0 0)
        Pressure : (0 0 0)
        Viscous  : (0 0 0)


Time = 2

smoothSolver:  Solving for Ux, Initial residual = 0.234237, Final residual = 0.0229518, No Iterations 8
smoothSolver:  Solving for Uy, Initial residual = 0.405798, Final residual = 0.033675, No Iterations 4
GAMG:  Solving for p, Initial residual = 0.0706399, Final residual = 0.0060661, No Iterations 6
time step continuity errors : sum local = 2.19452e-05, global = -5.67209e-06, cumulative = -8.30084e-06
smoothSolver:  Solving for nuTilda, Initial residual = 0.126627, Final residual = 0.00989727, No Iterations 6
ExecutionTime = 0.16 s  ClockTime = 0 s

forceCoeffs forceCoeffs execute:
    Coefficients
        Cd       : 0.00649164	(pressure: 0	viscous: 0.00649164)
        Cs       : 0	(pressure: 0	viscous: 0)
        Cl       : -0.00036266	(pressure: -0.000362945	viscous: 2.84936e-07)
        CmRoll       : 2.26663e-07	(pressure: 2.26841e-07	viscous: -1.78085e-10)
        CmPitch       : 9.2031e-05	(pressure: 9.20292e-05	viscous: 1.79868e-09)
        CmYaw       : 4.05728e-06	(pressure: 0	viscous: 4.05728e-06)
        Cd(f)    : 0.00324605
        Cd(r)    : 0.00324559
        Cs(f)    : 4.05728e-06
        Cs(r)    : -4.05728e-06
        Cl(f)    : -8.92992e-05
        Cl(r)    : -0.000273361
forces forces write:
    Sum of forces
        Total    : (0 0 0)
        Pressure : (0 0 0)
        Viscous  : (0 0 0)
    Sum of moments
        Total    : (0 0 0)
        Pressure : (0 0 0)
        Viscous  : (0 0 0)


Time = 3

smoothSolver:  Solving for Ux, Initial residual = 0.0728386, Final residual = 0.00517036, No Iterations 8
smoothSolver:  Solving for Uy, Initial residual = 0.394469, Final residual = 0.0209232, No Iterations 4
GAMG:  Solving for p, Initial residual = 0.0612561, Final residual = 0.00476365, No Iterations 4
time step continuity errors : sum local = 5.08292e-05, global = -1.22505e-05, cumulative = -2.05514e-05
smoothSolver:  Solving for nuTilda, Initial residual = 0.0678268, Final residual = 0.00528218, No Iterations 8
ExecutionTime = 0.18 s  ClockTime = 0 s

forceCoeffs forceCoeffs execute:
    Coefficients
        Cd       : 0.00541482	(pressure: 0	viscous: 0.00541482)
        Cs       : 0	(pressure: 0	viscous: 0)
        Cl       : -0.00060469	(pressure: -0.000604002	viscous: -6.88069e-07)
        CmRoll       : 3.77931e-07	(pressure: 3.77501e-07	viscous: 4.30043e-10)
        CmPitch       : 0.00013097	(pressure: 0.000130949	viscous: 2.11075e-08)
        CmYaw       : 3.38427e-06	(pressure: 0	viscous: 3.38427e-06)
        Cd(f)    : 0.00270779
        Cd(r)    : 0.00270703
        Cs(f)    : 3.38427e-06
        Cs(r)    : -3.38427e-06
        Cl(f)    : -0.000171375
        Cl(r)    : -0.000433315
forces forces write:
    Sum of forces
        Total    : (0 0 0)
        Pressure : (0 0 0)
        Viscous  : (0 0 0)
    Sum of moments
        Total    : (0 0 0)
        Pressure : (0 0 0)
        Viscous  : (0 0 0)


Time = 4

smoothSolver:  Solving for Ux, Initial residual = 0.0301259, Final residual = 0.00228563, No Iterations 8
smoothSolver:  Solving for Uy, Initial residual = 0.299334, Final residual = 0.0168995, No Iterations 4
GAMG:  Solving for p, Initial residual = 0.0475118, Final residual = 0.00266677, No Iterations 4
time step continuity errors : sum local = 3.87169e-05, global = -8.58839e-06, cumulative = -2.91397e-05
smoothSolver:  Solving for nuTilda, Initial residual = 0.0357901, Final residual = 0.00267437, No Iterations 8
ExecutionTime = 0.19 s  ClockTime = 0 s

forceCoeffs forceCoeffs execute:
    Coefficients
        Cd       : 0.00502329	(pressure: 0	viscous: 0.00502329)
        Cs       : 0	(pressure: 0	viscous: 0)
        Cl       : -0.000576776	(pressure: -0.000575505	viscous: -1.27173e-06)
        CmRoll       : 3.60485e-07	(pressure: 3.5969e-07	viscous: 7.94831e-10)
        CmPitch       : 0.000115035	(pressure: 0.000115005	viscous: 3.01593e-08)
        CmYaw       : 3.13956e-06	(pressure: 0	viscous: 3.13956e-06)
        Cd(f)    : 0.00251201
        Cd(r)    : 0.00251129
        Cs(f)    : 3.13956e-06
        Cs(r)    : -3.13956e-06
        Cl(f)    : -0.000173353
        Cl(r)    : -0.000403423
forces forces write:
    Sum of forces
        Total    : (0 0 0)
        Pressure : (0 0 0)
        Viscous  : (0 0 0)
    Sum of moments
        Total    : (0 0 0)
        Pressure : (0 0 0)
        Viscous  : (0 0 0)


Time = 5

smoothSolver:  Solving for Ux, Initial residual = 0.0203709, Final residual = 0.00122498, No Iterations 8
smoothSolver:  Solving for Uy, Initial residual = 0.21753, Final residual = 0.0122551, No Iterations 4
GAMG:  Solving for p, Initial residual = 0.0324594, Final residual = 0.00221077, No Iterations 4
time step continuity errors : sum local = 3.69408e-05, global = -8.36534e-06, cumulative = -3.75051e-05
smoothSolver:  Solving for nuTilda, Initial residual = 0.0236868, Final residual = 0.00189192, No Iterations 8
ExecutionTime = 0.21 s  ClockTime = 0 s

forceCoeffs forceCoeffs execute:
    Coefficients
        Cd       : 0.00429124	(pressure: 0	viscous: 0.00429124)
        Cs       : 0	(pressure: 0	viscous: 0)
        Cl       : -0.000561951	(pressure: -0.000562269	viscous: 3.18461e-07)
        CmRoll       : 3.51219e-07	(pressure: 3.51418e-07	viscous: -1.99038e-10)
        CmPitch       : 0.000108763	(pressure: 0.000108787	viscous: -2.33783e-08)
        CmYaw       : 2.68203e-06	(pressure: 0	viscous: 2.68203e-06)
        Cd(f)    : 0.00214597
        Cd(r)    : 0.00214527
        Cs(f)    : 2.68203e-06
        Cs(r)    : -2.68203e-06
        Cl(f)    : -0.000172212
        Cl(r)    : -0.000389739
forces forces write:
    Sum of forces
        Total    : (0 0 0)
        Pressure : (0 0 0)
        Viscous  : (0 0 0)
    Sum of moments
        Total    : (0 0 0)
        Pressure : (0 0 0)
        Viscous  : (0 0 0)


Time = 6

smoothSolver:  Solving for Ux, Initial residual = 0.0261895, Final residual = 0.00210294, No Iterations 6
smoothSolver:  Solving for Uy, Initial residual = 0.171953, Final residual = 0.00883371, No Iterations 4
GAMG:  Solving for p, Initial residual = 0.0302978, Final residual = 0.00177521, No Iterations 5
time step continuity errors : sum local = 3.1269e-05, global = 7.07847e-06, cumulative = -3.04266e-05
smoothSolver:  Solving for nuTilda, Initial residual = 0.0173301, Final residual = 0.00113129, No Iterations 8
ExecutionTime = 0.22 s  ClockTime = 0 s

forceCoeffs forceCoeffs execute:
    Coefficients
        Cd       : 0.00451765	(pressure: 0	viscous: 0.00451765)
        Cs       : 0	(pressure: 0	viscous: 0)
        Cl       : -0.000269778	(pressure: -0.000268692	viscous: -1.08595e-06)
        CmRoll       : 1.68611e-07	(pressure: 1.67932e-07	viscous: 6.78718e-10)
        CmPitch       : 3.26571e-05	(pressure: 3.26405e-05	viscous: 1.65839e-08)
        CmYaw       : 2.82353e-06	(pressure: 0	viscous: 2.82353e-06)
        Cd(f)    : 0.00225899
        Cd(r)    : 0.00225866
        Cs(f)    : 2.82353e-06
        Cs(r)    : -2.82353e-06
        Cl(f)    : -0.000102232
        Cl(r)    : -0.000167546
forces forces write:
    Sum of forces
        Total    : (0 0 0)
        Pressure : (0 0 0)
        Viscous  : (0 0 0)
    Sum of moments
        Total    : (0 0 0)
        Pressure : (0 0 0)
        Viscous  : (0 0 0)


Time = 7

smoothSolver:  Solving for Ux, Initial residual = 0.0126116, Final residual = 0.000720721, No Iterations 8
smoothSolver:  Solving for Uy, Initial residual = 0.114601, Final residual = 0.00553595, No Iterations 4
GAMG:  Solving for p, Initial residual = 0.0297246, Final residual = 0.0022471, No Iterations 3
time step continuity errors : sum local = 3.54447e-05, global = -7.22244e-06, cumulative = -3.7649e-05
smoothSolver:  Solving for nuTilda, Initial residual = 0.0115291, Final residual = 0.000827824, No Iterations 8
ExecutionTime = 0.24 s  ClockTime = 0 s

forceCoeffs forceCoeffs execute:
    Coefficients
        Cd       : 0.00391856	(pressure: 0	viscous: 0.00391856)
        Cs       : 0	(pressure: 0	viscous: 0)
        Cl       : -0.000319904	(pressure: -0.000320829	viscous: 9.2503e-07)
        CmRoll       : 1.9994e-07	(pressure: 2.00518e-07	viscous: -5.78144e-10)
        CmPitch       : 4.52532e-05	(pressure: 4.52933e-05	viscous: -4.01556e-08)
        CmYaw       : 2.4491e-06	(pressure: 0	viscous: 2.4491e-06)
        Cd(f)    : 0.00195948
        Cd(r)    : 0.00195908
        Cs(f)    : 2.4491e-06
        Cs(r)    : -2.4491e-06
        Cl(f)    : -0.000114699
        Cl(r)    : -0.000205205
forces forces write:
    Sum of forces
        Total    : (0 0 0)
        Pressure : (0 0 0)
        Viscous  : (0 0 0)
    Sum of moments
        Total    : (0 0 0)
        Pressure : (0 0 0)
        Viscous  : (0 0 0)


Time = 8

smoothSolver:  Solving for Ux, Initial residual = 0.015871, Final residual = 0.00138993, No Iterations 6
smoothSolver:  Solving for Uy, Initial residual = 0.104366, Final residual = 0.00464625, No Iterations 4
GAMG:  Solving for p, Initial residual = 0.0271192, Final residual = 0.00214165, No Iterations 3
time step continuity errors : sum local = 3.50761e-05, global = 5.81165e-06, cumulative = -3.18374e-05
smoothSolver:  Solving for nuTilda, Initial residual = 0.00957383, Final residual = 0.000547596, No Iterations 8
ExecutionTime = 0.25 s  ClockTime = 0 s

forceCoeffs forceCoeffs execute:
    Coefficients
        Cd       : 0.00417309	(pressure: 0	viscous: 0.00417309)
        Cs       : 0	(pressure: 0	viscous: 0)
        Cl       : -0.000182256	(pressure: -0.00018113	viscous: -1.12632e-06)
        CmRoll       : 1.1391e-07	(pressure: 1.13206e-07	viscous: 7.03952e-10)
        CmPitch       : 2.34305e-06	(pressure: 2.32216e-06	viscous: 2.08831e-08)
        CmYaw       : 2.60818e-06	(pressure: 0	viscous: 2.60818e-06)
        Cd(f)    : 0.00208666
        Cd(r)    : 0.00208643
        Cs(f)    : 2.60818e-06
        Cs(r)    : -2.60818e-06
        Cl(f)    : -8.87849e-05
        Cl(r)    : -9.3471e-05
forces forces write:
    Sum of forces
        Total    : (0 0 0)
        Pressure : (0 0 0)
        Viscous  : (0 0 0)
    Sum of moments
        Total    : (0 0 0)
        Pressure : (0 0 0)
        Viscous  : (0 0 0)


Time = 9

smoothSolver:  Solving for Ux, Initial residual = 0.00865052, Final residual = 0.000526323, No Iterations 8
smoothSolver:  Solving for Uy, Initial residual = 0.0798943, Final residual = 0.00366047, No Iterations 4
GAMG:  Solving for p, Initial residual = 0.0324067, Final residual = 0.00247219, No Iterations 3
time step continuity errors : sum local = 3.94043e-05, global = -4.85744e-06, cumulative = -3.66948e-05
smoothSolver:  Solving for nuTilda, Initial residual = 0.00637686, Final residual = 0.000399641, No Iterations 8
ExecutionTime = 0.27 s  ClockTime = 0 s

forceCoeffs forceCoeffs execute:
    Coefficients
        Cd       : 0.00375424	(pressure: 0	viscous: 0.00375424)
        Cs       : 0	(pressure: 0	viscous: 0)
        Cl       : -0.000233958	(pressure: -0.000235192	viscous: 1.23392e-06)
        CmRoll       : 1.46224e-07	(pressure: 1.46995e-07	viscous: -7.71202e-10)
        CmPitch       : 5.9188e-06	(pressure: 5.96945e-06	viscous: -5.06517e-08)
        CmYaw       : 2.3464e-06	(pressure: 0	viscous: 2.3464e-06)
        Cd(f)    : 0.00187727
        Cd(r)    : 0.00187698
        Cs(f)    : 2.3464e-06
        Cs(r)    : -2.3464e-06
        Cl(f)    : -0.00011106
        Cl(r)    : -0.000122898
forces forces write:
    Sum of forces
        Total    : (0 0 0)
        Pressure : (0 0 0)
        Viscous  : (0 0 0)
    Sum of moments
        Total    : (0 0 0)
        Pressure : (0 0 0)
        Viscous  : (0 0 0)


Time = 10

smoothSolver:  Solving for Ux, Initial residual = 0.0104592, Final residual = 0.00100612, No Iterations 6
smoothSolver:  Solving for Uy, Initial residual = 0.0792017, Final residual = 0.00335955, No Iterations 4
GAMG:  Solving for p, Initial residual = 0.0272085, Final residual = 0.00230952, No Iterations 3
time step continuity errors : sum local = 3.83186e-05, global = 4.17893e-06, cumulative = -3.25159e-05
smoothSolver:  Solving for nuTilda, Initial residual = 0.00583219, Final residual = 0.000522724, No Iterations 6
ExecutionTime = 0.29 s  ClockTime = 0 s

forceCoeffs forceCoeffs execute:
    Coefficients
        Cd       : 0.00394892	(pressure: 0	viscous: 0.00394892)
        Cs       : 0	(pressure: 0	viscous: 0)
        Cl       : -0.000141188	(pressure: -0.000139985	viscous: -1.20384e-06)
        CmRoll       : 8.82427e-08	(pressure: 8.74903e-08	viscous: 7.52401e-10)
        CmPitch       : -3.24641e-05	(pressure: -3.2489e-05	viscous: 2.4861e-08)
        CmYaw       : 2.46808e-06	(pressure: 0	viscous: 2.46808e-06)
        Cd(f)    : 0.00197455
        Cd(r)    : 0.00197437
        Cs(f)    : 2.46808e-06
        Cs(r)    : -2.46808e-06
        Cl(f)    : -0.000103058
        Cl(r)    : -3.81301e-05
forces forces write:
    Sum of forces
        Total    : (0 0 0)
        Pressure : (0 0 0)
        Viscous  : (0 0 0)
    Sum of moments
        Total    : (0 0 0)
        Pressure : (0 0 0)
        Viscous  : (0 0 0)


Time = 11

smoothSolver:  Solving for Ux, Initial residual = 0.00660129, Final residual = 0.000410671, No Iterations 8
smoothSolver:  Solving for Uy, Initial residual = 0.0604675, Final residual = 0.00272579, No Iterations 4
GAMG:  Solving for p, Initial residual = 0.0319436, Final residual = 0.00224763, No Iterations 3
time step continuity errors : sum local = 3.69788e-05, global = -3.22994e-06, cumulative = -3.57458e-05
smoothSolver:  Solving for nuTilda, Initial residual = 0.00378827, Final residual = 0.000206906, No Iterations 8
ExecutionTime = 0.3 s  ClockTime = 0 s

forceCoeffs forceCoeffs execute:
    Coefficients
        Cd       : 0.00364515	(pressure: 0	viscous: 0.00364515)
        Cs       : 0	(pressure: 0	viscous: 0)
        Cl       : -0.00019745	(pressure: -0.000198867	viscous: 1.41701e-06)
        CmRoll       : 1.23406e-07	(pressure: 1.24292e-07	viscous: -8.85629e-10)
        CmPitch       : -2.86177e-05	(pressure: -2.85581e-05	viscous: -5.95123e-08)
        CmYaw       : 2.27822e-06	(pressure: 0	viscous: 2.27822e-06)
        Cd(f)    : 0.0018227
        Cd(r)    : 0.00182245
        Cs(f)    : 2.27822e-06
        Cs(r)    : -2.27822e-06
        Cl(f)    : -0.000127343
        Cl(r)    : -7.01075e-05
forces forces write:
    Sum of forces
        Total    : (0 0 0)
        Pressure : (0 0 0)
        Viscous  : (0 0 0)
    Sum of moments
        Total    : (0 0 0)
        Pressure : (0 0 0)
        Viscous  : (0 0 0)


Time = 12

smoothSolver:  Solving for Ux, Initial residual = 0.0075183, Final residual = 0.000433279, No Iterations 8
smoothSolver:  Solving for Uy, Initial residual = 0.0593707, Final residual = 0.00247113, No Iterations 4
GAMG:  Solving for p, Initial residual = 0.0257771, Final residual = 0.00187296, No Iterations 3
time step continuity errors : sum local = 3.2127e-05, global = 1.19824e-06, cumulative = -3.45476e-05
smoothSolver:  Solving for nuTilda, Initial residual = 0.00379567, Final residual = 0.000281816, No Iterations 6
ExecutionTime = 0.32 s  ClockTime = 0 s

forceCoeffs forceCoeffs execute:
    Coefficients
        Cd       : 0.00378449	(pressure: 0	viscous: 0.00378449)
        Cs       : 0	(pressure: 0	viscous: 0)
        Cl       : -0.000160826	(pressure: -0.000159587	viscous: -1.23856e-06)
        CmRoll       : 1.00516e-07	(pressure: 9.9742e-08	viscous: 7.74103e-10)
        CmPitch       : -5.30878e-05	(pressure: -5.31127e-05	viscous: 2.48971e-08)
        CmYaw       : 2.3653e-06	(pressure: 0	viscous: 2.3653e-06)
        Cd(f)    : 0.00189234
        Cd(r)    : 0.00189214
        Cs(f)    : 2.3653e-06
        Cs(r)    : -2.3653e-06
        Cl(f)    : -0.000133501
        Cl(r)    : -2.7325e-05
forces forces write:
    Sum of forces
        Total    : (0 0 0)
        Pressure : (0 0 0)
        Viscous  : (0 0 0)
    Sum of moments
        Total    : (0 0 0)
        Pressure : (0 0 0)
        Viscous  : (0 0 0)


Time = 13

smoothSolver:  Solving for Ux, Initial residual = 0.00518277, Final residual = 0.000327444, No Iterations 8
smoothSolver:  Solving for Uy, Initial residual = 0.0483367, Final residual = 0.00208646, No Iterations 4
GAMG:  Solving for p, Initial residual = 0.02992, Final residual = 0.00163576, No Iterations 3
time step continuity errors : sum local = 2.88535e-05, global = -5.22377e-07, cumulative = -3.507e-05
smoothSolver:  Solving for nuTilda, Initial residual = 0.00231877, Final residual = 0.000212066, No Iterations 6
ExecutionTime = 0.33 s  ClockTime = 0 s

forceCoeffs forceCoeffs execute:
    Coefficients
        Cd       : 0.00355856	(pressure: 0	viscous: 0.00355856)
        Cs       : 0	(pressure: 0	viscous: 0)
        Cl       : -0.000211001	(pressure: -0.000212527	viscous: 1.52538e-06)
        CmRoll       : 1.31876e-07	(pressure: 1.32829e-07	viscous: -9.53365e-10)
        CmPitch       : -5.12579e-05	(pressure: -5.11907e-05	viscous: -6.71745e-08)
        CmYaw       : 2.2241e-06	(pressure: 0	viscous: 2.2241e-06)
        Cd(f)    : 0.00177941
        Cd(r)    : 0.00177915
        Cs(f)    : 2.2241e-06
        Cs(r)    : -2.2241e-06
        Cl(f)    : -0.000156758
        Cl(r)    : -5.42428e-05
forces forces write:
    Sum of forces
        Total    : (0 0 0)
        Pressure : (0 0 0)
        Viscous  : (0 0 0)
    Sum of moments
        Total    : (0 0 0)
        Pressure : (0 0 0)
        Viscous  : (0 0 0)


Time = 14

smoothSolver:  Solving for Ux, Initial residual = 0.00563859, Final residual = 0.000341162, No Iterations 8
smoothSolver:  Solving for Uy, Initial residual = 0.0476483, Final residual = 0.00191819, No Iterations 4
GAMG:  Solving for p, Initial residual = 0.0243094, Final residual = 0.00169393, No Iterations 3
time step continuity errors : sum local = 3.09467e-05, global = -2.64411e-06, cumulative = -3.77141e-05
smoothSolver:  Solving for nuTilda, Initial residual = 0.00265763, Final residual = 0.000151689, No Iterations 6
ExecutionTime = 0.35 s  ClockTime = 0 s

forceCoeffs forceCoeffs execute:
    Coefficients
        Cd       : 0.00366478	(pressure: 0	viscous: 0.00366478)
        Cs       : 0	(pressure: 0	viscous: 0)
        Cl       : -0.000169367	(pressure: -0.000168078	viscous: -1.28875e-06)
        CmRoll       : 1.05854e-07	(pressure: 1.05049e-07	viscous: 8.05466e-10)
        CmPitch       : -7.89216e-05	(pressure: -7.89451e-05	viscous: 2.34245e-08)
        CmYaw       : 2.29049e-06	(pressure: 0	viscous: 2.29049e-06)
        Cd(f)    : 0.00183249
        Cd(r)    : 0.00183228
        Cs(f)    : 2.29049e-06
        Cs(r)    : -2.29049e-06
        Cl(f)    : -0.000163605
        Cl(r)    : -5.7617e-06
forces forces write:
    Sum of forces
        Total    : (0 0 0)
        Pressure : (0 0 0)
        Viscous  : (0 0 0)
    Sum of moments
        Total    : (0 0 0)
        Pressure : (0 0 0)
        Viscous  : (0 0 0)


Time = 15

smoothSolver:  Solving for Ux, Initial residual = 0.00413891, Final residual = 0.000267108, No Iterations 8
smoothSolver:  Solving for Uy, Initial residual = 0.0391277, Final residual = 0.00165588, No Iterations 4
GAMG:  Solving for p, Initial residual = 0.0290038, Final residual = 0.00203034, No Iterations 3
time step continuity errors : sum local = 3.77109e-05, global = 4.32153e-06, cumulative = -3.33926e-05
smoothSolver:  Solving for nuTilda, Initial residual = 0.00147856, Final residual = 0.000117146, No Iterations 6
ExecutionTime = 0.36 s  ClockTime = 0 s

forceCoeffs forceCoeffs execute:
    Coefficients
        Cd       : 0.00349058	(pressure: 0	viscous: 0.00349058)
        Cs       : 0	(pressure: 0	viscous: 0)
        Cl       : -0.00021061	(pressure: -0.000212192	viscous: 1.58135e-06)
        CmRoll       : 1.31631e-07	(pressure: 1.3262e-07	viscous: -9.88344e-10)
        CmPitch       : -7.65171e-05	(pressure: -7.64423e-05	viscous: -7.4746e-08)
        CmYaw       : 2.18161e-06	(pressure: 0	viscous: 2.18161e-06)
        Cd(f)    : 0.00174542
        Cd(r)    : 0.00174516
        Cs(f)    : 2.18161e-06
        Cs(r)    : -2.18161e-06
        Cl(f)    : -0.000181822
        Cl(r)    : -2.87881e-05
forces forces write:
    Sum of forces
        Total    : (0 0 0)
        Pressure : (0 0 0)
        Viscous  : (0 0 0)
    Sum of moments
        Total    : (0 0 0)
        Pressure : (0 0 0)
        Viscous  : (0 0 0)


Time = 16

smoothSolver:  Solving for Ux, Initial residual = 0.00436863, Final residual = 0.000275343, No Iterations 8
smoothSolver:  Solving for Uy, Initial residual = 0.0381756, Final residual = 0.00152401, No Iterations 4
GAMG:  Solving for p, Initial residual = 0.0239211, Final residual = 0.00185936, No Iterations 3
time step continuity errors : sum local = 3.53822e-05, global = -3.75156e-06, cumulative = -3.71441e-05
smoothSolver:  Solving for nuTilda, Initial residual = 0.0019578, Final residual = 0.000177184, No Iterations 4
bounding nuTilda, min: -1.31572e-10 max: 0.000103211 average: 7.89805e-05
ExecutionTime = 0.38 s  ClockTime = 0 s

forceCoeffs forceCoeffs execute:
    Coefficients
        Cd       : 0.00357273	(pressure: 0	viscous: 0.00357273)
        Cs       : 0	(pressure: 0	viscous: 0)
        Cl       : -0.000189418	(pressure: -0.000188017	viscous: -1.40184e-06)
        CmRoll       : 1.18386e-07	(pressure: 1.1751e-07	viscous: 8.76153e-10)
        CmPitch       : -9.9803e-05	(pressure: -9.98243e-05	viscous: 2.13324e-08)
        CmYaw       : 2.23296e-06	(pressure: 0	viscous: 2.23296e-06)
        Cd(f)    : 0.00178649
        Cd(r)    : 0.00178625
        Cs(f)    : 2.23296e-06
        Cs(r)    : -2.23296e-06
        Cl(f)    : -0.000194512
        Cl(r)    : 5.09377e-06
forces forces write:
    Sum of forces
        Total    : (0 0 0)
        Pressure : (0 0 0)
        Viscous  : (0 0 0)
    Sum of moments
        Total    : (0 0 0)
        Pressure : (0 0 0)
        Viscous  : (0 0 0)


Time = 17

smoothSolver:  Solving for Ux, Initial residual = 0.0033848, Final residual = 0.000221767, No Iterations 8
smoothSolver:  Solving for Uy, Initial residual = 0.0333573, Final residual = 0.00136356, No Iterations 4
GAMG:  Solving for p, Initial residual = 0.0294162, Final residual = 0.00214073, No Iterations 3
time step continuity errors : sum local = 4.21407e-05, global = 4.5414e-06, cumulative = -3.26027e-05
smoothSolver:  Solving for nuTilda, Initial residual = 0.000993544, Final residual = 6.92085e-05, No Iterations 6
bounding nuTilda, min: -3.01778e-06 max: 0.000103215 average: 7.89179e-05
ExecutionTime = 0.4 s  ClockTime = 0 s

forceCoeffs forceCoeffs execute:
    Coefficients
        Cd       : 0.00343233	(pressure: 0	viscous: 0.00343233)
        Cs       : 0	(pressure: 0	viscous: 0)
        Cl       : -0.000227614	(pressure: -0.000229169	viscous: 1.55529e-06)
        CmRoll       : 1.42258e-07	(pressure: 1.43231e-07	viscous: -9.72055e-10)
        CmPitch       : -0.000100179	(pressure: -0.000100096	viscous: -8.28241e-08)
        CmYaw       : 2.14521e-06	(pressure: 0	viscous: 2.14521e-06)
        Cd(f)    : 0.00171631
        Cd(r)    : 0.00171602
        Cs(f)    : 2.14521e-06
        Cs(r)    : -2.14521e-06
        Cl(f)    : -0.000213985
        Cl(r)    : -1.36281e-05
forces forces write:
    Sum of forces
        Total    : (0 0 0)
        Pressure : (0 0 0)
        Viscous  : (0 0 0)
    Sum of moments
        Total    : (0 0 0)
        Pressure : (0 0 0)
        Viscous  : (0 0 0)


Time = 18

smoothSolver:  Solving for Ux, Initial residual = 0.00346303, Final residual = 0.000225589, No Iterations 8
smoothSolver:  Solving for Uy, Initial residual = 0.0337666, Final residual = 0.00328801, No Iterations 2
GAMG:  Solving for p, Initial residual = 0.0224699, Final residual = 0.00139913, No Iterations 3
time step continuity errors : sum local = 2.84708e-05, global = -3.34221e-06, cumulative = -3.59449e-05
smoothSolver:  Solving for nuTilda, Initial residual = 0.00155171, Final residual = 0.000109454, No Iterations 4
bounding nuTilda, min: -9.28404e-06 max: 0.000103073 average: 7.88323e-05
ExecutionTime = 0.41 s  ClockTime = 0 s

forceCoeffs forceCoeffs execute:
    Coefficients
        Cd       : 0.00349322	(pressure: 0	viscous: 0.00349322)
        Cs       : 0	(pressure: 0	viscous: 0)
        Cl       : -0.000238839	(pressure: -0.000236949	viscous: -1.89032e-06)
        CmRoll       : 1.49275e-07	(pressure: 1.48093e-07	viscous: 1.18145e-09)
        CmPitch       : -0.000109394	(pressure: -0.000109418	viscous: 2.39006e-08)
        CmYaw       : 2.18326e-06	(pressure: 0	viscous: 2.18326e-06)
        Cd(f)    : 0.00174676
        Cd(r)    : 0.00174646
        Cs(f)    : 2.18326e-06
        Cs(r)    : -2.18326e-06
        Cl(f)    : -0.000228813
        Cl(r)    : -1.00259e-05
forces forces write:
    Sum of forces
        Total    : (0 0 0)
        Pressure : (0 0 0)
        Viscous  : (0 0 0)
    Sum of moments
        Total    : (0 0 0)
        Pressure : (0 0 0)
        Viscous  : (0 0 0)


Time = 19

smoothSolver:  Solving for Ux, Initial residual = 0.00280993, Final residual = 0.000185496, No Iterations 8
smoothSolver:  Solving for Uy, Initial residual = 0.0320044, Final residual = 0.0013292, No Iterations 4
GAMG:  Solving for p, Initial residual = 0.0241144, Final residual = 0.00180739, No Iterations 3
time step continuity errors : sum local = 3.7725e-05, global = 3.76183e-06, cumulative = -3.21831e-05
smoothSolver:  Solving for nuTilda, Initial residual = 0.000714814, Final residual = 4.60038e-05, No Iterations 6
bounding nuTilda, min: -2.29363e-06 max: 0.000103078 average: 7.88175e-05
ExecutionTime = 0.43 s  ClockTime = 0 s

forceCoeffs forceCoeffs execute:
    Coefficients
        Cd       : 0.00338329	(pressure: 0	viscous: 0.00338329)
        Cs       : 0	(pressure: 0	viscous: 0)
        Cl       : -0.000268728	(pressure: -0.000270166	viscous: 1.43828e-06)
        CmRoll       : 1.67955e-07	(pressure: 1.68854e-07	viscous: -8.98923e-10)
        CmPitch       : -0.000112	(pressure: -0.000111916	viscous: -8.42439e-08)
        CmYaw       : 2.11456e-06	(pressure: 0	viscous: 2.11456e-06)
        Cd(f)    : 0.00169182
        Cd(r)    : 0.00169148
        Cs(f)    : 2.11456e-06
        Cs(r)    : -2.11456e-06
        Cl(f)    : -0.000246364
        Cl(r)    : -2.23634e-05
forces forces write:
    Sum of forces
        Total    : (0 0 0)
        Pressure : (0 0 0)
        Viscous  : (0 0 0)
    Sum of moments
        Total    : (0 0 0)
        Pressure : (0 0 0)
        Viscous  : (0 0 0)


Time = 20

smoothSolver:  Solving for Ux, Initial residual = 0.00289339, Final residual = 0.000188028, No Iterations 8
smoothSolver:  Solving for Uy, Initial residual = 0.0314385, Final residual = 0.00124705, No Iterations 4
GAMG:  Solving for p, Initial residual = 0.0226816, Final residual = 0.0015224, No Iterations 3
time step continuity errors : sum local = 3.28205e-05, global = -3.24296e-06, cumulative = -3.54261e-05
smoothSolver:  Solving for nuTilda, Initial residual = 0.00132691, Final residual = 7.64126e-05, No Iterations 4
bounding nuTilda, min: -7.43129e-06 max: 0.000102938 average: 7.87713e-05
ExecutionTime = 0.44 s  ClockTime = 0 s

forceCoeffs forceCoeffs execute:
    Coefficients
        Cd       : 0.00343815	(pressure: 0	viscous: 0.00343815)
        Cs       : 0	(pressure: 0	viscous: 0)
        Cl       : -0.000266635	(pressure: -0.000264847	viscous: -1.78819e-06)
        CmRoll       : 1.66647e-07	(pressure: 1.65529e-07	viscous: 1.11762e-09)
        CmPitch       : -0.000129404	(pressure: -0.000129426	viscous: 2.17289e-08)
        CmYaw       : 2.14884e-06	(pressure: 0	viscous: 2.14884e-06)
        Cd(f)    : 0.00171924
        Cd(r)    : 0.00171891
        Cs(f)    : 2.14884e-06
        Cs(r)    : -2.14884e-06
        Cl(f)    : -0.000262722
        Cl(r)    : -3.91353e-06
forces forces write:
    Sum of forces
        Total    : (0 0 0)
        Pressure : (0 0 0)
        Viscous  : (0 0 0)
    Sum of moments
        Total    : (0 0 0)
        Pressure : (0 0 0)
        Viscous  : (0 0 0)


Time = 21

smoothSolver:  Solving for Ux, Initial residual = 0.00234334, Final residual = 0.000155947, No Iterations 8
smoothSolver:  Solving for Uy, Initial residual = 0.0289892, Final residual = 0.00284756, No Iterations 2
GAMG:  Solving for p, Initial residual = 0.0212972, Final residual = 0.00138388, No Iterations 3
time step continuity errors : sum local = 3.05867e-05, global = 3.24366e-06, cumulative = -3.21824e-05
smoothSolver:  Solving for nuTilda, Initial residual = 0.00056688, Final residual = 3.68165e-05, No Iterations 6
bounding nuTilda, min: -2.30862e-06 max: 0.000102948 average: 7.87856e-05
ExecutionTime = 0.45 s  ClockTime = 0 s

forceCoeffs forceCoeffs execute:
    Coefficients
        Cd       : 0.00334605	(pressure: 0	viscous: 0.00334605)
        Cs       : 0	(pressure: 0	viscous: 0)
        Cl       : -0.000319837	(pressure: -0.000321292	viscous: 1.45507e-06)
        CmRoll       : 1.99898e-07	(pressure: 2.00807e-07	viscous: -9.09416e-10)
        CmPitch       : -0.000117912	(pressure: -0.00011783	viscous: -8.21916e-08)
        CmYaw       : 2.09128e-06	(pressure: 0	viscous: 2.09128e-06)
        Cd(f)    : 0.00167322
        Cd(r)    : 0.00167282
        Cs(f)    : 2.09128e-06
        Cs(r)    : -2.09128e-06
        Cl(f)    : -0.000277831
        Cl(r)    : -4.2006e-05
forces forces write:
    Sum of forces
        Total    : (0 0 0)
        Pressure : (0 0 0)
        Viscous  : (0 0 0)
    Sum of moments
        Total    : (0 0 0)
        Pressure : (0 0 0)
        Viscous  : (0 0 0)


Time = 22

smoothSolver:  Solving for Ux, Initial residual = 0.00241139, Final residual = 0.000157831, No Iterations 8
smoothSolver:  Solving for Uy, Initial residual = 0.0295421, Final residual = 0.00114525, No Iterations 4
GAMG:  Solving for p, Initial residual = 0.020144, Final residual = 0.0012562, No Iterations 3
time step continuity errors : sum local = 2.8616e-05, global = -3.13252e-06, cumulative = -3.53149e-05
smoothSolver:  Solving for nuTilda, Initial residual = 0.00121476, Final residual = 6.36705e-05, No Iterations 4
bounding nuTilda, min: -7.48358e-06 max: 0.000102814 average: 7.87634e-05
ExecutionTime = 0.47 s  ClockTime = 0 s

forceCoeffs forceCoeffs execute:
    Coefficients
        Cd       : 0.00339405	(pressure: 0	viscous: 0.00339405)
        Cs       : 0	(pressure: 0	viscous: 0)
        Cl       : -0.000324653	(pressure: -0.000322929	viscous: -1.72432e-06)
        CmRoll       : 2.02908e-07	(pressure: 2.01831e-07	viscous: 1.0777e-09)
        CmPitch       : -0.000131978	(pressure: -0.000131993	viscous: 1.55044e-08)
        CmYaw       : 2.12128e-06	(pressure: 0	viscous: 2.12128e-06)
        Cd(f)    : 0.00169723
        Cd(r)    : 0.00169682
        Cs(f)    : 2.12128e-06
        Cs(r)    : -2.12128e-06
        Cl(f)    : -0.000294304
        Cl(r)    : -3.03489e-05
forces forces write:
    Sum of forces
        Total    : (0 0 0)
        Pressure : (0 0 0)
        Viscous  : (0 0 0)
    Sum of moments
        Total    : (0 0 0)
        Pressure : (0 0 0)
        Viscous  : (0 0 0)


Time = 23

smoothSolver:  Solving for Ux, Initial residual = 0.00197472, Final residual = 0.000131139, No Iterations 8
smoothSolver:  Solving for Uy, Initial residual = 0.0271187, Final residual = 0.0025658, No Iterations 2
GAMG:  Solving for p, Initial residual = 0.0201627, Final residual = 0.00194378, No Iterations 2
time step continuity errors : sum local = 4.5492e-05, global = -6.21338e-06, cumulative = -4.15283e-05
smoothSolver:  Solving for nuTilda, Initial residual = 0.000499327, Final residual = 3.46786e-05, No Iterations 6
bounding nuTilda, min: -2.29104e-06 max: 0.000102834 average: 7.87946e-05
ExecutionTime = 0.49 s  ClockTime = 0 s

forceCoeffs forceCoeffs execute:
    Coefficients
        Cd       : 0.00331414	(pressure: 0	viscous: 0.00331414)
        Cs       : 0	(pressure: 0	viscous: 0)
        Cl       : -0.000361787	(pressure: -0.000363299	viscous: 1.51247e-06)
        CmRoll       : 2.26117e-07	(pressure: 2.27062e-07	viscous: -9.45295e-10)
        CmPitch       : -0.000123468	(pressure: -0.000123379	viscous: -8.87204e-08)
        CmYaw       : 2.07134e-06	(pressure: 0	viscous: 2.07134e-06)
        Cd(f)    : 0.0016573
        Cd(r)    : 0.00165684
        Cs(f)    : 2.07134e-06
        Cs(r)    : -2.07134e-06
        Cl(f)    : -0.000304361
        Cl(r)    : -5.74257e-05
forces forces write:
    Sum of forces
        Total    : (0 0 0)
        Pressure : (0 0 0)
        Viscous  : (0 0 0)
    Sum of moments
        Total    : (0 0 0)
        Pressure : (0 0 0)
        Viscous  : (0 0 0)


Time = 24

smoothSolver:  Solving for Ux, Initial residual = 0.00203681, Final residual = 0.000133252, No Iterations 8
smoothSolver:  Solving for Uy, Initial residual = 0.0267239, Final residual = 0.00255237, No Iterations 2
GAMG:  Solving for p, Initial residual = 0.017115, Final residual = 0.00121698, No Iterations 3
time step continuity errors : sum local = 2.89623e-05, global = 3.44253e-06, cumulative = -3.80858e-05
smoothSolver:  Solving for nuTilda, Initial residual = 0.00116395, Final residual = 6.04208e-05, No Iterations 4
bounding nuTilda, min: -7.45647e-06 max: 0.000102706 average: 7.87856e-05
ExecutionTime = 0.5 s  ClockTime = 0 s

forceCoeffs forceCoeffs execute:
    Coefficients
        Cd       : 0.00335868	(pressure: 0	viscous: 0.00335868)
        Cs       : 0	(pressure: 0	viscous: 0)
        Cl       : -0.000414986	(pressure: -0.000413389	viscous: -1.5963e-06)
        CmRoll       : 2.59366e-07	(pressure: 2.58368e-07	viscous: 9.97687e-10)
        CmPitch       : -0.000115376	(pressure: -0.000115382	viscous: 6.21979e-09)
        CmYaw       : 2.09917e-06	(pressure: 0	viscous: 2.09917e-06)
        Cd(f)    : 0.0016796
        Cd(r)    : 0.00167908
        Cs(f)    : 2.09917e-06
        Cs(r)    : -2.09917e-06
        Cl(f)    : -0.000322869
        Cl(r)    : -9.21168e-05
forces forces write:
    Sum of forces
        Total    : (0 0 0)
        Pressure : (0 0 0)
        Viscous  : (0 0 0)
    Sum of moments
        Total    : (0 0 0)
        Pressure : (0 0 0)
        Viscous  : (0 0 0)


Time = 25

smoothSolver:  Solving for Ux, Initial residual = 0.00171001, Final residual = 0.00011006, No Iterations 8
smoothSolver:  Solving for Uy, Initial residual = 0.0268023, Final residual = 0.00257193, No Iterations 2
GAMG:  Solving for p, Initial residual = 0.0183336, Final residual = 0.00102793, No Iterations 3
time step continuity errors : sum local = 2.5798e-05, global = -3.88113e-06, cumulative = -4.19669e-05
smoothSolver:  Solving for nuTilda, Initial residual = 0.0004695, Final residual = 3.47794e-05, No Iterations 6
bounding nuTilda, min: -2.27815e-06 max: 0.000102733 average: 7.88254e-05
ExecutionTime = 0.52 s  ClockTime = 0 s

forceCoeffs forceCoeffs execute:
    Coefficients
        Cd       : 0.00328676	(pressure: 0	viscous: 0.00328676)
        Cs       : 0	(pressure: 0	viscous: 0)
        Cl       : -0.000456413	(pressure: -0.000457939	viscous: 1.52548e-06)
        CmRoll       : 2.85258e-07	(pressure: 2.86212e-07	viscous: -9.53422e-10)
        CmPitch       : -0.000106631	(pressure: -0.000106539	viscous: -9.18955e-08)
        CmYaw       : 2.05422e-06	(pressure: 0	viscous: 2.05422e-06)
        Cd(f)    : 0.00164366
        Cd(r)    : 0.00164309
        Cs(f)    : 2.05422e-06
        Cs(r)    : -2.05422e-06
        Cl(f)    : -0.000334838
        Cl(r)    : -0.000121576
forces forces write:
    Sum of forces
        Total    : (0 0 0)
        Pressure : (0 0 0)
        Viscous  : (0 0 0)
    Sum of moments
        Total    : (0 0 0)
        Pressure : (0 0 0)
        Viscous  : (0 0 0)


Time = 26

smoothSolver:  Solving for Ux, Initial residual = 0.00178522, Final residual = 0.000112823, No Iterations 8
smoothSolver:  Solving for Uy, Initial residual = 0.026962, Final residual = 0.00258907, No Iterations 2
GAMG:  Solving for p, Initial residual = 0.0159182, Final residual = 0.00147004, No Iterations 2
time step continuity errors : sum local = 3.75063e-05, global = -3.46089e-06, cumulative = -4.54278e-05
smoothSolver:  Solving for nuTilda, Initial residual = 0.00114686, Final residual = 5.9866e-05, No Iterations 4
bounding nuTilda, min: -7.41785e-06 max: 0.000102611 average: 7.88224e-05
ExecutionTime = 0.53 s  ClockTime = 0 s

forceCoeffs forceCoeffs execute:
    Coefficients
        Cd       : 0.00333129	(pressure: 0	viscous: 0.00333129)
        Cs       : 0	(pressure: 0	viscous: 0)
        Cl       : -0.000478595	(pressure: -0.000476997	viscous: -1.59838e-06)
        CmRoll       : 2.99122e-07	(pressure: 2.98123e-07	viscous: 9.98985e-10)
        CmPitch       : -0.00010782	(pressure: -0.000107822	viscous: 2.12687e-09)
        CmYaw       : 2.08206e-06	(pressure: 0	viscous: 2.08206e-06)
        Cd(f)    : 0.00166594
        Cd(r)    : 0.00166535
        Cs(f)    : 2.08206e-06
        Cs(r)    : -2.08206e-06
        Cl(f)    : -0.000347117
        Cl(r)    : -0.000131478
forces forces write:
    Sum of forces
        Total    : (0 0 0)
        Pressure : (0 0 0)
        Viscous  : (0 0 0)
    Sum of moments
        Total    : (0 0 0)
        Pressure : (0 0 0)
        Viscous  : (0 0 0)


Time = 27

smoothSolver:  Solving for Ux, Initial residual = 0.00147174, Final residual = 9.22206e-05, No Iterations 8
smoothSolver:  Solving for Uy, Initial residual = 0.025188, Final residual = 0.00242266, No Iterations 2
GAMG:  Solving for p, Initial residual = 0.0170878, Final residual = 0.0016031, No Iterations 2
time step continuity errors : sum local = 4.21272e-05, global = -6.43727e-06, cumulative = -5.18651e-05
smoothSolver:  Solving for nuTilda, Initial residual = 0.000457772, Final residual = 3.48621e-05, No Iterations 6
bounding nuTilda, min: -2.26505e-06 max: 0.000102646 average: 7.88663e-05
ExecutionTime = 0.55 s  ClockTime = 0 s

forceCoeffs forceCoeffs execute:
    Coefficients
        Cd       : 0.00326358	(pressure: 0	viscous: 0.00326358)
        Cs       : 0	(pressure: 0	viscous: 0)
        Cl       : -0.000511957	(pressure: -0.000513492	viscous: 1.53491e-06)
        CmRoll       : 3.19973e-07	(pressure: 3.20933e-07	viscous: -9.59318e-10)
        CmPitch       : -9.95792e-05	(pressure: -9.94826e-05	viscous: -9.6526e-08)
        CmYaw       : 2.03974e-06	(pressure: 0	viscous: 2.03974e-06)
        Cd(f)    : 0.00163211
        Cd(r)    : 0.00163147
        Cs(f)    : 2.03974e-06
        Cs(r)    : -2.03974e-06
        Cl(f)    : -0.000355558
        Cl(r)    : -0.000156399
forces forces write:
    Sum of forces
        Total    : (0 0 0)
        Pressure : (0 0 0)
        Viscous  : (0 0 0)
    Sum of moments
        Total    : (0 0 0)
        Pressure : (0 0 0)
        Viscous  : (0 0 0)


Time = 28

smoothSolver:  Solving for Ux, Initial residual = 0.00156158, Final residual = 9.58628e-05, No Iterations 8
smoothSolver:  Solving for Uy, Initial residual = 0.0243828, Final residual = 0.00230367, No Iterations 2
GAMG:  Solving for p, Initial residual = 0.0154041, Final residual = 0.00150557, No Iterations 2
time step continuity errors : sum local = 4.00598e-05, global = -5.53676e-06, cumulative = -5.74018e-05
smoothSolver:  Solving for nuTilda, Initial residual = 0.00114357, Final residual = 5.90272e-05, No Iterations 4
bounding nuTilda, min: -7.40657e-06 max: 0.00010253 average: 7.88648e-05
ExecutionTime = 0.57 s  ClockTime = 0 s

forceCoeffs forceCoeffs execute:
    Coefficients
        Cd       : 0.00330966	(pressure: 0	viscous: 0.00330966)
        Cs       : 0	(pressure: 0	viscous: 0)
        Cl       : -0.000547238	(pressure: -0.000545662	viscous: -1.57676e-06)
        CmRoll       : 3.42024e-07	(pressure: 3.41039e-07	viscous: 9.85477e-10)
        CmPitch       : -9.50134e-05	(pressure: -9.50093e-05	viscous: -4.14937e-09)
        CmYaw       : 2.06854e-06	(pressure: 0	viscous: 2.06854e-06)
        Cd(f)    : 0.00165517
        Cd(r)    : 0.00165449
        Cs(f)    : 2.06854e-06
        Cs(r)    : -2.06854e-06
        Cl(f)    : -0.000368633
        Cl(r)    : -0.000178606
forces forces write:
    Sum of forces
        Total    : (0 0 0)
        Pressure : (0 0 0)
        Viscous  : (0 0 0)
    Sum of moments
        Total    : (0 0 0)
        Pressure : (0 0 0)
        Viscous  : (0 0 0)


Time = 29

smoothSolver:  Solving for Ux, Initial residual = 0.00129814, Final residual = 7.67359e-05, No Iterations 8
smoothSolver:  Solving for Uy, Initial residual = 0.0233075, Final residual = 0.00214965, No Iterations 2
GAMG:  Solving for p, Initial residual = 0.0162441, Final residual = 0.00156326, No Iterations 2
time step continuity errors : sum local = 4.311e-05, global = -7.56075e-06, cumulative = -6.49626e-05
smoothSolver:  Solving for nuTilda, Initial residual = 0.000451512, Final residual = 3.4301e-05, No Iterations 6
bounding nuTilda, min: -2.255e-06 max: 0.000102572 average: 7.89105e-05
ExecutionTime = 0.58 s  ClockTime = 0 s

forceCoeffs forceCoeffs execute:
    Coefficients
        Cd       : 0.00324302	(pressure: 0	viscous: 0.00324302)
        Cs       : 0	(pressure: 0	viscous: 0)
        Cl       : -0.000593282	(pressure: -0.000594827	viscous: 1.54496e-06)
        CmRoll       : 3.70801e-07	(pressure: 3.71767e-07	viscous: -9.65599e-10)
        CmPitch       : -8.08234e-05	(pressure: -8.07232e-05	viscous: -1.00214e-07)
        CmYaw       : 2.02689e-06	(pressure: 0	viscous: 2.02689e-06)
        Cd(f)    : 0.00162188
        Cd(r)    : 0.00162114
        Cs(f)    : 2.02689e-06
        Cs(r)    : -2.02689e-06
        Cl(f)    : -0.000377465
        Cl(r)    : -0.000215818
forces forces write:
    Sum of forces
        Total    : (0 0 0)
        Pressure : (0 0 0)
        Viscous  : (0 0 0)
    Sum of moments
        Total    : (0 0 0)
        Pressure : (0 0 0)
        Viscous  : (0 0 0)


Time = 30

smoothSolver:  Solving for Ux, Initial residual = 0.00140937, Final residual = 8.15765e-05, No Iterations 8
smoothSolver:  Solving for Uy, Initial residual = 0.0232504, Final residual = 0.00207405, No Iterations 2
GAMG:  Solving for p, Initial residual = 0.0146234, Final residual = 0.00133239, No Iterations 2
time step continuity errors : sum local = 3.73929e-05, global = -5.76694e-06, cumulative = -7.07295e-05
smoothSolver:  Solving for nuTilda, Initial residual = 0.00115085, Final residual = 5.72889e-05, No Iterations 4
bounding nuTilda, min: -7.38749e-06 max: 0.00010246 average: 7.89076e-05
ExecutionTime = 0.6 s  ClockTime = 0 s

forceCoeffs forceCoeffs execute:
    Coefficients
        Cd       : 0.00329333	(pressure: 0	viscous: 0.00329333)
        Cs       : 0	(pressure: 0	viscous: 0)
        Cl       : -0.000632734	(pressure: -0.00063117	viscous: -1.56367e-06)
        CmRoll       : 3.95459e-07	(pressure: 3.94482e-07	viscous: 9.77294e-10)
        CmPitch       : -7.30413e-05	(pressure: -7.3032e-05	viscous: -9.25937e-09)
        CmYaw       : 2.05833e-06	(pressure: 0	viscous: 2.05833e-06)
        Cd(f)    : 0.00164706
        Cd(r)    : 0.00164627
        Cs(f)    : 2.05833e-06
        Cs(r)    : -2.05833e-06
        Cl(f)    : -0.000389408
        Cl(r)    : -0.000243326
forces forces write:
    Sum of forces
        Total    : (0 0 0)
        Pressure : (0 0 0)
        Viscous  : (0 0 0)
    Sum of moments
        Total    : (0 0 0)
        Pressure : (0 0 0)
        Viscous  : (0 0 0)


Time = 31

smoothSolver:  Solving for Ux, Initial residual = 0.00117573, Final residual = 0.000112325, No Iterations 6
smoothSolver:  Solving for Uy, Initial residual = 0.0222444, Final residual = 0.00193782, No Iterations 2
GAMG:  Solving for p, Initial residual = 0.0153077, Final residual = 0.00144624, No Iterations 2
time step continuity errors : sum local = 4.20292e-05, global = -6.79452e-06, cumulative = -7.7524e-05
smoothSolver:  Solving for nuTilda, Initial residual = 0.000447473, Final residual = 3.29892e-05, No Iterations 6
bounding nuTilda, min: -2.2474e-06 max: 0.000102508 average: 7.89542e-05
ExecutionTime = 0.61 s  ClockTime = 0 s

forceCoeffs forceCoeffs execute:
    Coefficients
        Cd       : 0.00322524	(pressure: 0	viscous: 0.00322524)
        Cs       : 0	(pressure: 0	viscous: 0)
        Cl       : -0.000670271	(pressure: -0.000671821	viscous: 1.5507e-06)
        CmRoll       : 4.18919e-07	(pressure: 4.19888e-07	viscous: -9.69189e-10)
        CmPitch       : -6.17652e-05	(pressure: -6.16627e-05	viscous: -1.02497e-07)
        CmYaw       : 2.01577e-06	(pressure: 0	viscous: 2.01577e-06)
        Cd(f)    : 0.00161304
        Cd(r)    : 0.0016122
        Cs(f)    : 2.01577e-06
        Cs(r)    : -2.01577e-06
        Cl(f)    : -0.0003969
        Cl(r)    : -0.00027337
forces forces write:
    Sum of forces
        Total    : (0 0 0)
        Pressure : (0 0 0)
        Viscous  : (0 0 0)
    Sum of moments
        Total    : (0 0 0)
        Pressure : (0 0 0)
        Viscous  : (0 0 0)


Time = 32

smoothSolver:  Solving for Ux, Initial residual = 0.00129882, Final residual = 0.000124193, No Iterations 6
smoothSolver:  Solving for Uy, Initial residual = 0.0216832, Final residual = 0.00185502, No Iterations 2
GAMG:  Solving for p, Initial residual = 0.0139022, Final residual = 0.00122481, No Iterations 2
time step continuity errors : sum local = 3.60206e-05, global = -4.09531e-06, cumulative = -8.16193e-05
smoothSolver:  Solving for nuTilda, Initial residual = 0.00116498, Final residual = 5.42131e-05, No Iterations 4
bounding nuTilda, min: -7.37209e-06 max: 0.0001024 average: 7.89478e-05
ExecutionTime = 0.63 s  ClockTime = 0 s

forceCoeffs forceCoeffs execute:
    Coefficients
        Cd       : 0.00328288	(pressure: 0	viscous: 0.00328288)
        Cs       : 0	(pressure: 0	viscous: 0)
        Cl       : -0.000694486	(pressure: -0.000692935	viscous: -1.55097e-06)
        CmRoll       : 4.34054e-07	(pressure: 4.33084e-07	viscous: 9.69358e-10)
        CmPitch       : -5.99077e-05	(pressure: -5.98932e-05	viscous: -1.44517e-08)
        CmYaw       : 2.0518e-06	(pressure: 0	viscous: 2.0518e-06)
        Cd(f)    : 0.00164187
        Cd(r)    : 0.00164101
        Cs(f)    : 2.0518e-06
        Cs(r)    : -2.0518e-06
        Cl(f)    : -0.000407151
        Cl(r)    : -0.000287335
forces forces write:
    Sum of forces
        Total    : (0 0 0)
        Pressure : (0 0 0)
        Viscous  : (0 0 0)
    Sum of moments
        Total    : (0 0 0)
        Pressure : (0 0 0)
        Viscous  : (0 0 0)


Time = 33

smoothSolver:  Solving for Ux, Initial residual = 0.00108149, Final residual = 9.33921e-05, No Iterations 6
smoothSolver:  Solving for Uy, Initial residual = 0.0200269, Final residual = 0.00168232, No Iterations 2
GAMG:  Solving for p, Initial residual = 0.0146159, Final residual = 0.0013375, No Iterations 2
time step continuity errors : sum local = 4.03813e-05, global = -6.57106e-06, cumulative = -8.81904e-05
smoothSolver:  Solving for nuTilda, Initial residual = 0.000443696, Final residual = 3.1104e-05, No Iterations 6
bounding nuTilda, min: -2.24065e-06 max: 0.000102453 average: 7.89948e-05
ExecutionTime = 0.64 s  ClockTime = 0 s

forceCoeffs forceCoeffs execute:
    Coefficients
        Cd       : 0.0032101	(pressure: 0	viscous: 0.0032101)
        Cs       : 0	(pressure: 0	viscous: 0)
        Cl       : -0.000736004	(pressure: -0.000737559	viscous: 1.55505e-06)
        CmRoll       : 4.60002e-07	(pressure: 4.60974e-07	viscous: -9.71905e-10)
        CmPitch       : -4.42409e-05	(pressure: -4.41368e-05	viscous: -1.04046e-07)
        CmYaw       : 2.00631e-06	(pressure: 0	viscous: 2.00631e-06)
        Cd(f)    : 0.00160551
        Cd(r)    : 0.00160459
        Cs(f)    : 2.00631e-06
        Cs(r)    : -2.00631e-06
        Cl(f)    : -0.000412243
        Cl(r)    : -0.000323761
forces forces write:
    Sum of forces
        Total    : (0 0 0)
        Pressure : (0 0 0)
        Viscous  : (0 0 0)
    Sum of moments
        Total    : (0 0 0)
        Pressure : (0 0 0)
        Viscous  : (0 0 0)


Time = 34

smoothSolver:  Solving for Ux, Initial residual = 0.00122215, Final residual = 0.000107724, No Iterations 6
smoothSolver:  Solving for Uy, Initial residual = 0.0197021, Final residual = 0.00161645, No Iterations 2
GAMG:  Solving for p, Initial residual = 0.0133503, Final residual = 0.001018, No Iterations 2
time step continuity errors : sum local = 3.10958e-05, global = -3.66937e-06, cumulative = -9.18598e-05
smoothSolver:  Solving for nuTilda, Initial residual = 0.00118564, Final residual = 5.07968e-05, No Iterations 4
bounding nuTilda, min: -7.35884e-06 max: 0.000102349 average: 7.8984e-05
ExecutionTime = 0.66 s  ClockTime = 0 s

forceCoeffs forceCoeffs execute:
    Coefficients
        Cd       : 0.00327492	(pressure: 0	viscous: 0.00327492)
        Cs       : 0	(pressure: 0	viscous: 0)
        Cl       : -0.000761825	(pressure: -0.000760284	viscous: -1.54135e-06)
        CmRoll       : 4.76141e-07	(pressure: 4.75177e-07	viscous: 9.63342e-10)
        CmPitch       : -3.88035e-05	(pressure: -3.87849e-05	viscous: -1.86408e-08)
        CmYaw       : 2.04682e-06	(pressure: 0	viscous: 2.04682e-06)
        Cd(f)    : 0.00163793
        Cd(r)    : 0.00163698
        Cs(f)    : 2.04682e-06
        Cs(r)    : -2.04682e-06
        Cl(f)    : -0.000419716
        Cl(r)    : -0.000342109
forces forces write:
    Sum of forces
        Total    : (0 0 0)
        Pressure : (0 0 0)
        Viscous  : (0 0 0)
    Sum of moments
        Total    : (0 0 0)
        Pressure : (0 0 0)
        Viscous  : (0 0 0)


Time = 35

smoothSolver:  Solving for Ux, Initial residual = 0.00101149, Final residual = 7.71521e-05, No Iterations 6
smoothSolver:  Solving for Uy, Initial residual = 0.0181225, Final residual = 0.00146782, No Iterations 2
GAMG:  Solving for p, Initial residual = 0.0140333, Final residual = 0.00124963, No Iterations 2
time step continuity errors : sum local = 3.91231e-05, global = -6.66263e-06, cumulative = -9.85224e-05
smoothSolver:  Solving for nuTilda, Initial residual = 0.000439437, Final residual = 2.89856e-05, No Iterations 6
bounding nuTilda, min: -2.23483e-06 max: 0.000102405 average: 7.90311e-05
ExecutionTime = 0.68 s  ClockTime = 0 s

forceCoeffs forceCoeffs execute:
    Coefficients
        Cd       : 0.00319683	(pressure: 0	viscous: 0.00319683)
        Cs       : 0	(pressure: 0	viscous: 0)
        Cl       : -0.000814873	(pressure: -0.00081643	viscous: 1.55698e-06)
        CmRoll       : 5.09296e-07	(pressure: 5.10269e-07	viscous: -9.73112e-10)
        CmPitch       : -1.4625e-05	(pressure: -1.45207e-05	viscous: -1.04304e-07)
        CmYaw       : 1.99802e-06	(pressure: 0	viscous: 1.99802e-06)
        Cd(f)    : 0.00159893
        Cd(r)    : 0.00159791
        Cs(f)    : 1.99802e-06
        Cs(r)    : -1.99802e-06
        Cl(f)    : -0.000422061
        Cl(r)    : -0.000392811
forces forces write:
    Sum of forces
        Total    : (0 0 0)
        Pressure : (0 0 0)
        Viscous  : (0 0 0)
    Sum of moments
        Total    : (0 0 0)
        Pressure : (0 0 0)
        Viscous  : (0 0 0)


Time = 36

smoothSolver:  Solving for Ux, Initial residual = 0.00117104, Final residual = 9.35579e-05, No Iterations 6
smoothSolver:  Solving for Uy, Initial residual = 0.018289, Final residual = 0.00144874, No Iterations 2
GAMG:  Solving for p, Initial residual = 0.0128641, Final residual = 0.000917253, No Iterations 2
time step continuity errors : sum local = 2.91239e-05, global = -3.51039e-06, cumulative = -0.000102033
smoothSolver:  Solving for nuTilda, Initial residual = 0.00120519, Final residual = 0.000118797, No Iterations 2
bounding nuTilda, min: -7.15935e-06 max: 0.000102341 average: 7.90153e-05
ExecutionTime = 0.69 s  ClockTime = 1 s

forceCoeffs forceCoeffs execute:
    Coefficients
        Cd       : 0.0032686	(pressure: 0	viscous: 0.0032686)
        Cs       : 0	(pressure: 0	viscous: 0)
        Cl       : -0.000840907	(pressure: -0.000839374	viscous: -1.53316e-06)
        CmRoll       : 5.25567e-07	(pressure: 5.24608e-07	viscous: 9.58226e-10)
        CmPitch       : -7.49391e-06	(pressure: -7.47157e-06	viscous: -2.23461e-08)
        CmYaw       : 2.04287e-06	(pressure: 0	viscous: 2.04287e-06)
        Cd(f)    : 0.00163482
        Cd(r)    : 0.00163377
        Cs(f)    : 2.04287e-06
        Cs(r)    : -2.04287e-06
        Cl(f)    : -0.000427947
        Cl(r)    : -0.000412959
forces forces write:
    Sum of forces
        Total    : (0 0 0)
        Pressure : (0 0 0)
        Viscous  : (0 0 0)
    Sum of moments
        Total    : (0 0 0)
        Pressure : (0 0 0)
        Viscous  : (0 0 0)


Time = 37

smoothSolver:  Solving for Ux, Initial residual = 0.000908516, Final residual = 6.50361e-05, No Iterations 6
smoothSolver:  Solving for Uy, Initial residual = 0.0166827, Final residual = 0.00130544, No Iterations 2
GAMG:  Solving for p, Initial residual = 0.0131983, Final residual = 0.00116028, No Iterations 2
time step continuity errors : sum local = 3.76367e-05, global = -6.37351e-06, cumulative = -0.000108406
smoothSolver:  Solving for nuTilda, Initial residual = 0.000427055, Final residual = 2.56198e-05, No Iterations 6
bounding nuTilda, min: -2.29874e-06 max: 0.000102389 average: 7.90559e-05
ExecutionTime = 0.71 s  ClockTime = 1 s

forceCoeffs forceCoeffs execute:
    Coefficients
        Cd       : 0.00319887	(pressure: 0	viscous: 0.00319887)
        Cs       : 0	(pressure: 0	viscous: 0)
        Cl       : -0.000894919	(pressure: -0.000896497	viscous: 1.57835e-06)
        CmRoll       : 5.59324e-07	(pressure: 5.60311e-07	viscous: -9.8647e-10)
        CmPitch       : 1.89338e-05	(pressure: 1.90468e-05	viscous: -1.12997e-07)
        CmYaw       : 1.99929e-06	(pressure: 0	viscous: 1.99929e-06)
        Cd(f)    : 0.00159999
        Cd(r)    : 0.00159888
        Cs(f)    : 1.99929e-06
        Cs(r)    : -1.99929e-06
        Cl(f)    : -0.000428526
        Cl(r)    : -0.000466393
forces forces write:
    Sum of forces
        Total    : (0 0 0)
        Pressure : (0 0 0)
        Viscous  : (0 0 0)
    Sum of moments
        Total    : (0 0 0)
        Pressure : (0 0 0)
        Viscous  : (0 0 0)


Time = 38

smoothSolver:  Solving for Ux, Initial residual = 0.00101226, Final residual = 7.82804e-05, No Iterations 6
smoothSolver:  Solving for Uy, Initial residual = 0.0168615, Final residual = 0.00129352, No Iterations 2
GAMG:  Solving for p, Initial residual = 0.011986, Final residual = 0.000864252, No Iterations 2
time step continuity errors : sum local = 2.84303e-05, global = -3.94608e-06, cumulative = -0.000112352
smoothSolver:  Solving for nuTilda, Initial residual = 0.00115975, Final residual = 0.000108567, No Iterations 2
bounding nuTilda, min: -7.09055e-06 max: 0.000102325 average: 7.90418e-05
ExecutionTime = 0.71 s  ClockTime = 1 s

forceCoeffs forceCoeffs execute:
    Coefficients
        Cd       : 0.00325946	(pressure: 0	viscous: 0.00325946)
        Cs       : 0	(pressure: 0	viscous: 0)
        Cl       : -0.000924271	(pressure: -0.000922782	viscous: -1.48845e-06)
        CmRoll       : 5.77669e-07	(pressure: 5.76739e-07	viscous: 9.30282e-10)
        CmPitch       : 2.82988e-05	(pressure: 2.83188e-05	viscous: -1.99958e-08)
        CmYaw       : 2.03716e-06	(pressure: 0	viscous: 2.03716e-06)
        Cd(f)    : 0.00163031
        Cd(r)    : 0.00162915
        Cs(f)    : 2.03716e-06
        Cs(r)    : -2.03716e-06
        Cl(f)    : -0.000433837
        Cl(r)    : -0.000490434
forces forces write:
    Sum of forces
        Total    : (0 0 0)
        Pressure : (0 0 0)
        Viscous  : (0 0 0)
    Sum of moments
        Total    : (0 0 0)
        Pressure : (0 0 0)
        Viscous  : (0 0 0)


Time = 39

smoothSolver:  Solving for Ux, Initial residual = 0.000793185, Final residual = 5.42408e-05, No Iterations 6
smoothSolver:  Solving for Uy, Initial residual = 0.0154592, Final residual = 0.00117481, No Iterations 2
GAMG:  Solving for p, Initial residual = 0.0126203, Final residual = 0.00108425, No Iterations 2
time step continuity errors : sum local = 3.64433e-05, global = -6.46187e-06, cumulative = -0.000118814
smoothSolver:  Solving for nuTilda, Initial residual = 0.000409602, Final residual = 2.29602e-05, No Iterations 6
bounding nuTilda, min: -2.283e-06 max: 0.000102371 average: 7.90776e-05
ExecutionTime = 0.74 s  ClockTime = 1 s

forceCoeffs forceCoeffs execute:
    Coefficients
        Cd       : 0.00319964	(pressure: 0	viscous: 0.00319964)
        Cs       : 0	(pressure: 0	viscous: 0)
        Cl       : -0.000973247	(pressure: -0.000974851	viscous: 1.60384e-06)
        CmRoll       : 6.0828e-07	(pressure: 6.09282e-07	viscous: -1.0024e-09)
        CmPitch       : 5.34946e-05	(pressure: 5.36151e-05	viscous: -1.20501e-07)
        CmYaw       : 1.99977e-06	(pressure: 0	viscous: 1.99977e-06)
        Cd(f)    : 0.00160043
        Cd(r)    : 0.00159921
        Cs(f)    : 1.99977e-06
        Cs(r)    : -1.99977e-06
        Cl(f)    : -0.000433129
        Cl(r)    : -0.000540118
forces forces write:
    Sum of forces
        Total    : (0 0 0)
        Pressure : (0 0 0)
        Viscous  : (0 0 0)
    Sum of moments
        Total    : (0 0 0)
        Pressure : (0 0 0)
        Viscous  : (0 0 0)


Time = 40

smoothSolver:  Solving for Ux, Initial residual = 0.000870215, Final residual = 6.49136e-05, No Iterations 6
smoothSolver:  Solving for Uy, Initial residual = 0.0154936, Final residual = 0.00116512, No Iterations 2
GAMG:  Solving for p, Initial residual = 0.0115937, Final residual = 0.00082827, No Iterations 2
time step continuity errors : sum local = 2.81608e-05, global = -4.27691e-06, cumulative = -0.000123091
smoothSolver:  Solving for nuTilda, Initial residual = 0.0011119, Final residual = 9.66686e-05, No Iterations 2
bounding nuTilda, min: -7.13337e-06 max: 0.000102305 average: 7.90656e-05
ExecutionTime = 0.75 s  ClockTime = 1 s

forceCoeffs forceCoeffs execute:
    Coefficients
        Cd       : 0.00324999	(pressure: 0	viscous: 0.00324999)
        Cs       : 0	(pressure: 0	viscous: 0)
        Cl       : -0.0010054	(pressure: -0.00100389	viscous: -1.50668e-06)
        CmRoll       : 6.28376e-07	(pressure: 6.27434e-07	viscous: 9.41672e-10)
        CmPitch       : 6.48213e-05	(pressure: 6.48386e-05	viscous: -1.7301e-08)
        CmYaw       : 2.03125e-06	(pressure: 0	viscous: 2.03125e-06)
        Cd(f)    : 0.00162563
        Cd(r)    : 0.00162437
        Cs(f)    : 2.03125e-06
        Cs(r)    : -2.03125e-06
        Cl(f)    : -0.000437879
        Cl(r)    : -0.000567522
forces forces write:
    Sum of forces
        Total    : (0 0 0)
        Pressure : (0 0 0)
        Viscous  : (0 0 0)
    Sum of moments
        Total    : (0 0 0)
        Pressure : (0 0 0)
        Viscous  : (0 0 0)


Time = 41

smoothSolver:  Solving for Ux, Initial residual = 0.000677845, Final residual = 4.50343e-05, No Iterations 6
smoothSolver:  Solving for Uy, Initial residual = 0.0142965, Final residual = 0.00106384, No Iterations 2
GAMG:  Solving for p, Initial residual = 0.012089, Final residual = 0.000990058, No Iterations 2
time step continuity errors : sum local = 3.43851e-05, global = -6.28294e-06, cumulative = -0.000129374
smoothSolver:  Solving for nuTilda, Initial residual = 0.000380309, Final residual = 2.01531e-05, No Iterations 6
bounding nuTilda, min: -2.28957e-06 max: 0.000102351 average: 7.90961e-05
ExecutionTime = 0.77 s  ClockTime = 1 s

forceCoeffs forceCoeffs execute:
    Coefficients
        Cd       : 0.00320103	(pressure: 0	viscous: 0.00320103)
        Cs       : 0	(pressure: 0	viscous: 0)
        Cl       : -0.00104912	(pressure: -0.00105073	viscous: 1.6115e-06)
        CmRoll       : 6.55698e-07	(pressure: 6.56705e-07	viscous: -1.00719e-09)
        CmPitch       : 8.86548e-05	(pressure: 8.87817e-05	viscous: -1.269e-07)
        CmYaw       : 2.00064e-06	(pressure: 0	viscous: 2.00064e-06)
        Cd(f)    : 0.00160117
        Cd(r)    : 0.00159986
        Cs(f)    : 2.00064e-06
        Cs(r)    : -2.00064e-06
        Cl(f)    : -0.000435904
        Cl(r)    : -0.000613213
forces forces write:
    Sum of forces
        Total    : (0 0 0)
        Pressure : (0 0 0)
        Viscous  : (0 0 0)
    Sum of moments
        Total    : (0 0 0)
        Pressure : (0 0 0)
        Viscous  : (0 0 0)


Time = 42

smoothSolver:  Solving for Ux, Initial residual = 0.00073317, Final residual = 5.30938e-05, No Iterations 6
smoothSolver:  Solving for Uy, Initial residual = 0.0141457, Final residual = 0.00103792, No Iterations 2
GAMG:  Solving for p, Initial residual = 0.0112187, Final residual = 0.000779328, No Iterations 2
time step continuity errors : sum local = 2.73136e-05, global = -4.31618e-06, cumulative = -0.00013369
smoothSolver:  Solving for nuTilda, Initial residual = 0.00105107, Final residual = 8.353e-05, No Iterations 2
bounding nuTilda, min: -7.14031e-06 max: 0.000102285 average: 7.90865e-05
ExecutionTime = 0.78 s  ClockTime = 1 s

forceCoeffs forceCoeffs execute:
    Coefficients
        Cd       : 0.00324119	(pressure: 0	viscous: 0.00324119)
        Cs       : 0	(pressure: 0	viscous: 0)
        Cl       : -0.0010819	(pressure: -0.00108039	viscous: -1.50868e-06)
        CmRoll       : 6.76186e-07	(pressure: 6.75243e-07	viscous: 9.42927e-10)
        CmPitch       : 0.000100979	(pressure: 0.000100995	viscous: -1.60099e-08)
        CmYaw       : 2.02574e-06	(pressure: 0	viscous: 2.02574e-06)
        Cd(f)    : 0.00162127
        Cd(r)    : 0.00161992
        Cs(f)    : 2.02574e-06
        Cs(r)    : -2.02574e-06
        Cl(f)    : -0.00043997
        Cl(r)    : -0.000641928
forces forces write:
    Sum of forces
        Total    : (0 0 0)
        Pressure : (0 0 0)
        Viscous  : (0 0 0)
    Sum of moments
        Total    : (0 0 0)
        Pressure : (0 0 0)
        Viscous  : (0 0 0)


Time = 43

smoothSolver:  Solving for Ux, Initial residual = 0.000567706, Final residual = 3.713e-05, No Iterations 6
smoothSolver:  Solving for Uy, Initial residual = 0.0130519, Final residual = 0.000946742, No Iterations 2
GAMG:  Solving for p, Initial residual = 0.0116829, Final residual = 0.000899201, No Iterations 2
time step continuity errors : sum local = 3.21652e-05, global = -5.80487e-06, cumulative = -0.000139495
smoothSolver:  Solving for nuTilda, Initial residual = 0.000342486, Final residual = 3.31599e-05, No Iterations 4
bounding nuTilda, min: -2.31586e-06 max: 0.000102324 average: 7.91091e-05
ExecutionTime = 0.8 s  ClockTime = 1 s

forceCoeffs forceCoeffs execute:
    Coefficients
        Cd       : 0.00320298	(pressure: 0	viscous: 0.00320298)
        Cs       : 0	(pressure: 0	viscous: 0)
        Cl       : -0.0011209	(pressure: -0.00112252	viscous: 1.61863e-06)
        CmRoll       : 7.00564e-07	(pressure: 7.01576e-07	viscous: -1.01164e-09)
        CmPitch       : 0.000123607	(pressure: 0.000123739	viscous: -1.32115e-07)
        CmYaw       : 2.00186e-06	(pressure: 0	viscous: 2.00186e-06)
        Cd(f)    : 0.00160219
        Cd(r)    : 0.00160079
        Cs(f)    : 2.00186e-06
        Cs(r)    : -2.00186e-06
        Cl(f)    : -0.000436844
        Cl(r)    : -0.000684059
forces forces write:
    Sum of forces
        Total    : (0 0 0)
        Pressure : (0 0 0)
        Viscous  : (0 0 0)
    Sum of moments
        Total    : (0 0 0)
        Pressure : (0 0 0)
        Viscous  : (0 0 0)


Time = 44

smoothSolver:  Solving for Ux, Initial residual = 0.000596148, Final residual = 4.23102e-05, No Iterations 6
smoothSolver:  Solving for Uy, Initial residual = 0.0128157, Final residual = 0.000910572, No Iterations 2
GAMG:  Solving for p, Initial residual = 0.0109428, Final residual = 0.000728075, No Iterations 2
time step continuity errors : sum local = 2.62361e-05, global = -4.19195e-06, cumulative = -0.000143687
smoothSolver:  Solving for nuTilda, Initial residual = 0.000980226, Final residual = 6.89522e-05, No Iterations 2
bounding nuTilda, min: -7.23293e-06 max: 0.000102259 average: 7.9103e-05
ExecutionTime = 0.8 s  ClockTime = 1 s

forceCoeffs forceCoeffs execute:
    Coefficients
        Cd       : 0.00323161	(pressure: 0	viscous: 0.00323161)
        Cs       : 0	(pressure: 0	viscous: 0)
        Cl       : -0.00115366	(pressure: -0.00115213	viscous: -1.52571e-06)
        CmRoll       : 7.21037e-07	(pressure: 7.20083e-07	viscous: 9.5357e-10)
        CmPitch       : 0.000136379	(pressure: 0.000136393	viscous: -1.39007e-08)
        CmYaw       : 2.01976e-06	(pressure: 0	viscous: 2.01976e-06)
        Cd(f)    : 0.00161653
        Cd(r)    : 0.00161509
        Cs(f)    : 2.01976e-06
        Cs(r)    : -2.01976e-06
        Cl(f)    : -0.000440451
        Cl(r)    : -0.000713208
forces forces write:
    Sum of forces
        Total    : (0 0 0)
        Pressure : (0 0 0)
        Viscous  : (0 0 0)
    Sum of moments
        Total    : (0 0 0)
        Pressure : (0 0 0)
        Viscous  : (0 0 0)


Time = 45

smoothSolver:  Solving for Ux, Initial residual = 0.000454901, Final residual = 3.07677e-05, No Iterations 6
smoothSolver:  Solving for Uy, Initial residual = 0.0118048, Final residual = 0.000829498, No Iterations 2
GAMG:  Solving for p, Initial residual = 0.0113329, Final residual = 0.000801208, No Iterations 2
time step continuity errors : sum local = 2.94344e-05, global = -5.14337e-06, cumulative = -0.00014883
smoothSolver:  Solving for nuTilda, Initial residual = 0.000296701, Final residual = 2.81896e-05, No Iterations 4
bounding nuTilda, min: -2.30557e-06 max: 0.000102299 average: 7.91203e-05
ExecutionTime = 0.82 s  ClockTime = 1 s

forceCoeffs forceCoeffs execute:
    Coefficients
        Cd       : 0.00320588	(pressure: 0	viscous: 0.00320588)
        Cs       : 0	(pressure: 0	viscous: 0)
        Cl       : -0.00118591	(pressure: -0.00118753	viscous: 1.62067e-06)
        CmRoll       : 7.41194e-07	(pressure: 7.42207e-07	viscous: -1.01292e-09)
        CmPitch       : 0.000156613	(pressure: 0.00015675	viscous: -1.37155e-07)
        CmYaw       : 2.00368e-06	(pressure: 0	viscous: 2.00368e-06)
        Cd(f)    : 0.00160368
        Cd(r)    : 0.0016022
        Cs(f)    : 2.00368e-06
        Cs(r)    : -2.00368e-06
        Cl(f)    : -0.000436342
        Cl(r)    : -0.000749568
forces forces write:
    Sum of forces
        Total    : (0 0 0)
        Pressure : (0 0 0)
        Viscous  : (0 0 0)
    Sum of moments
        Total    : (0 0 0)
        Pressure : (0 0 0)
        Viscous  : (0 0 0)


Time = 46

smoothSolver:  Solving for Ux, Initial residual = 0.000475574, Final residual = 3.30549e-05, No Iterations 6
smoothSolver:  Solving for Uy, Initial residual = 0.0114512, Final residual = 0.000795822, No Iterations 2
GAMG:  Solving for p, Initial residual = 0.0107241, Final residual = 0.000698601, No Iterations 2
time step continuity errors : sum local = 2.57833e-05, global = -4.03422e-06, cumulative = -0.000152865
smoothSolver:  Solving for nuTilda, Initial residual = 0.000914492, Final residual = 5.56135e-05, No Iterations 2
bounding nuTilda, min: -7.21765e-06 max: 0.000102236 average: 7.91178e-05
ExecutionTime = 0.84 s  ClockTime = 1 s

forceCoeffs forceCoeffs execute:
    Coefficients
        Cd       : 0.00322288	(pressure: 0	viscous: 0.00322288)
        Cs       : 0	(pressure: 0	viscous: 0)
        Cl       : -0.00121953	(pressure: -0.001218	viscous: -1.53109e-06)
        CmRoll       : 7.62207e-07	(pressure: 7.6125e-07	viscous: 9.56931e-10)
        CmPitch       : 0.000170122	(pressure: 0.000170135	viscous: -1.2615e-08)
        CmYaw       : 2.0143e-06	(pressure: 0	viscous: 2.0143e-06)
        Cd(f)    : 0.0016122
        Cd(r)    : 0.00161068
        Cs(f)    : 2.0143e-06
        Cs(r)    : -2.0143e-06
        Cl(f)    : -0.000439643
        Cl(r)    : -0.000779888
forces forces write:
    Sum of forces
        Total    : (0 0 0)
        Pressure : (0 0 0)
        Viscous  : (0 0 0)
    Sum of moments
        Total    : (0 0 0)
        Pressure : (0 0 0)
        Viscous  : (0 0 0)


Time = 47

smoothSolver:  Solving for Ux, Initial residual = 0.000363836, Final residual = 2.62682e-05, No Iterations 6
smoothSolver:  Solving for Uy, Initial residual = 0.0105792, Final residual = 0.000725361, No Iterations 2
GAMG:  Solving for p, Initial residual = 0.0110525, Final residual = 0.000718562, No Iterations 2
time step continuity errors : sum local = 2.70243e-05, global = -4.46811e-06, cumulative = -0.000157333
smoothSolver:  Solving for nuTilda, Initial residual = 0.000246545, Final residual = 2.33217e-05, No Iterations 4
bounding nuTilda, min: -2.30265e-06 max: 0.000102277 average: 7.91295e-05
ExecutionTime = 0.85 s  ClockTime = 1 s

forceCoeffs forceCoeffs execute:
    Coefficients
        Cd       : 0.0032092	(pressure: 0	viscous: 0.0032092)
        Cs       : 0	(pressure: 0	viscous: 0)
        Cl       : -0.00124409	(pressure: -0.00124571	viscous: 1.62342e-06)
        CmRoll       : 7.77555e-07	(pressure: 7.7857e-07	viscous: -1.01464e-09)
        CmPitch       : 0.000187208	(pressure: 0.000187348	viscous: -1.40832e-07)
        CmYaw       : 2.00575e-06	(pressure: 0	viscous: 2.00575e-06)
        Cd(f)    : 0.00160538
        Cd(r)    : 0.00160382
        Cs(f)    : 2.00575e-06
        Cs(r)    : -2.00575e-06
        Cl(f)    : -0.000434836
        Cl(r)    : -0.000809252
forces forces write:
    Sum of forces
        Total    : (0 0 0)
        Pressure : (0 0 0)
        Viscous  : (0 0 0)
    Sum of moments
        Total    : (0 0 0)
        Pressure : (0 0 0)
        Viscous  : (0 0 0)


Time = 48

smoothSolver:  Solving for Ux, Initial residual = 0.000401712, Final residual = 2.5277e-05, No Iterations 6
smoothSolver:  Solving for Uy, Initial residual = 0.0100938, Final residual = 0.000692465, No Iterations 2
GAMG:  Solving for p, Initial residual = 0.0104991, Final residual = 0.000678605, No Iterations 2
time step continuity errors : sum local = 2.55674e-05, global = -3.94777e-06, cumulative = -0.000161281
smoothSolver:  Solving for nuTilda, Initial residual = 0.00085835, Final residual = 4.41626e-05, No Iterations 2
bounding nuTilda, min: -7.20653e-06 max: 0.000102215 average: 7.91306e-05
ExecutionTime = 0.87 s  ClockTime = 1 s

forceCoeffs forceCoeffs execute:
    Coefficients
        Cd       : 0.00321442	(pressure: 0	viscous: 0.00321442)
        Cs       : 0	(pressure: 0	viscous: 0)
        Cl       : -0.00127902	(pressure: -0.00127749	viscous: -1.53034e-06)
        CmRoll       : 7.99386e-07	(pressure: 7.9843e-07	viscous: 9.56462e-10)
        CmPitch       : 0.000201591	(pressure: 0.000201603	viscous: -1.1698e-08)
        CmYaw       : 2.00901e-06	(pressure: 0	viscous: 2.00901e-06)
        Cd(f)    : 0.00160801
        Cd(r)    : 0.00160641
        Cs(f)    : 2.00901e-06
        Cs(r)    : -2.00901e-06
        Cl(f)    : -0.000437918
        Cl(r)    : -0.0008411
forces forces write:
    Sum of forces
        Total    : (0 0 0)
        Pressure : (0 0 0)
        Viscous  : (0 0 0)
    Sum of moments
        Total    : (0 0 0)
        Pressure : (0 0 0)
        Viscous  : (0 0 0)


Time = 49

smoothSolver:  Solving for Ux, Initial residual = 0.000337177, Final residual = 2.29987e-05, No Iterations 6
smoothSolver:  Solving for Uy, Initial residual = 0.00941403, Final residual = 0.000634883, No Iterations 2
GAMG:  Solving for p, Initial residual = 0.0108104, Final residual = 0.000649767, No Iterations 2
time step continuity errors : sum local = 2.49404e-05, global = -3.75557e-06, cumulative = -0.000165036
smoothSolver:  Solving for nuTilda, Initial residual = 0.000213212, Final residual = 1.9239e-05, No Iterations 4
bounding nuTilda, min: -2.29962e-06 max: 0.000102257 average: 7.91368e-05
ExecutionTime = 0.88 s  ClockTime = 1 s

forceCoeffs forceCoeffs execute:
    Coefficients
        Cd       : 0.00321242	(pressure: 0	viscous: 0.00321242)
        Cs       : 0	(pressure: 0	viscous: 0)
        Cl       : -0.00129562	(pressure: -0.00129724	viscous: 1.62478e-06)
        CmRoll       : 8.09762e-07	(pressure: 8.10777e-07	viscous: -1.01548e-09)
        CmPitch       : 0.000215048	(pressure: 0.000215191	viscous: -1.43266e-07)
        CmYaw       : 2.00776e-06	(pressure: 0	viscous: 2.00776e-06)
        Cd(f)    : 0.00160702
        Cd(r)    : 0.0016054
        Cs(f)    : 2.00776e-06
        Cs(r)    : -2.00776e-06
        Cl(f)    : -0.000432761
        Cl(r)    : -0.000862857
forces forces write:
    Sum of forces
        Total    : (0 0 0)
        Pressure : (0 0 0)
        Viscous  : (0 0 0)
    Sum of moments
        Total    : (0 0 0)
        Pressure : (0 0 0)
        Viscous  : (0 0 0)


Time = 50

smoothSolver:  Solving for Ux, Initial residual = 0.000387754, Final residual = 3.60752e-05, No Iterations 4
smoothSolver:  Solving for Uy, Initial residual = 0.0088025, Final residual = 0.00059675, No Iterations 2
GAMG:  Solving for p, Initial residual = 0.0102812, Final residual = 0.000667715, No Iterations 2
time step continuity errors : sum local = 2.56069e-05, global = -3.24297e-06, cumulative = -0.000168279
smoothSolver:  Solving for nuTilda, Initial residual = 0.000847025, Final residual = 4.32262e-05, No Iterations 2
bounding nuTilda, min: -7.19947e-06 max: 0.000102195 average: 7.91415e-05
ExecutionTime = 0.89 s  ClockTime = 1 s

forceCoeffs forceCoeffs execute:
    Coefficients
        Cd       : 0.00320618	(pressure: 0	viscous: 0.00320618)
        Cs       : 0	(pressure: 0	viscous: 0)
        Cl       : -0.00132796	(pressure: -0.00132643	viscous: -1.52853e-06)
        CmRoll       : 8.29976e-07	(pressure: 8.2902e-07	viscous: 9.55333e-10)
        CmPitch       : 0.000227557	(pressure: 0.000227568	viscous: -1.10187e-08)
        CmYaw       : 2.00387e-06	(pressure: 0	viscous: 2.00387e-06)
        Cd(f)    : 0.00160392
        Cd(r)    : 0.00160226
        Cs(f)    : 2.00387e-06
        Cs(r)    : -2.00387e-06
        Cl(f)    : -0.000436424
        Cl(r)    : -0.000891537
forces forces write:
    Sum of forces
        Total    : (0 0 0)
        Pressure : (0 0 0)
        Viscous  : (0 0 0)
    Sum of moments
        Total    : (0 0 0)
        Pressure : (0 0 0)
        Viscous  : (0 0 0)


Time = 51

smoothSolver:  Solving for Ux, Initial residual = 0.000370927, Final residual = 2.08205e-05, No Iterations 6
smoothSolver:  Solving for Uy, Initial residual = 0.00825056, Final residual = 0.000560848, No Iterations 2
GAMG:  Solving for p, Initial residual = 0.0106215, Final residual = 0.00058185, No Iterations 2
time step continuity errors : sum local = 2.27016e-05, global = -2.67314e-06, cumulative = -0.000170952
smoothSolver:  Solving for nuTilda, Initial residual = 0.000226482, Final residual = 1.70486e-05, No Iterations 4
bounding nuTilda, min: -2.29742e-06 max: 0.000102238 average: 7.91427e-05
ExecutionTime = 0.91 s  ClockTime = 1 s

forceCoeffs forceCoeffs execute:
    Coefficients
        Cd       : 0.00321506	(pressure: 0	viscous: 0.00321506)
        Cs       : 0	(pressure: 0	viscous: 0)
        Cl       : -0.00133568	(pressure: -0.0013373	viscous: 1.62402e-06)
        CmRoll       : 8.348e-07	(pressure: 8.35815e-07	viscous: -1.01501e-09)
        CmPitch       : 0.000236369	(pressure: 0.000236513	viscous: -1.44407e-07)
        CmYaw       : 2.00941e-06	(pressure: 0	viscous: 2.00941e-06)
        Cd(f)    : 0.00160836
        Cd(r)    : 0.00160669
        Cs(f)    : 2.00941e-06
        Cs(r)    : -2.00941e-06
        Cl(f)    : -0.000431471
        Cl(r)    : -0.000904209
forces forces write:
    Sum of forces
        Total    : (0 0 0)
        Pressure : (0 0 0)
        Viscous  : (0 0 0)
    Sum of moments
        Total    : (0 0 0)
        Pressure : (0 0 0)
        Viscous  : (0 0 0)


Time = 52

smoothSolver:  Solving for Ux, Initial residual = 0.000410257, Final residual = 2.96648e-05, No Iterations 4
smoothSolver:  Solving for Uy, Initial residual = 0.00746836, Final residual = 0.000495926, No Iterations 2
GAMG:  Solving for p, Initial residual = 0.0101148, Final residual = 0.000645665, No Iterations 2
time step continuity errors : sum local = 2.50999e-05, global = -3.06596e-06, cumulative = -0.000174018
smoothSolver:  Solving for nuTilda, Initial residual = 0.000860593, Final residual = 4.78807e-05, No Iterations 2
bounding nuTilda, min: -7.1945e-06 max: 0.000102177 average: 7.91504e-05
[...]
        Viscous  : (0 0 0)


Time = 988

smoothSolver:  Solving for Ux, Initial residual = 0.000123887, Final residual = 7.26819e-06, No Iterations 2
smoothSolver:  Solving for Uy, Initial residual = 0.00171004, Final residual = 8.0242e-05, No Iterations 4
GAMG:  Solving for p, Initial residual = 0.0097913, Final residual = 0.000378352, No Iterations 2
time step continuity errors : sum local = 1.58279e-05, global = -2.32094e-10, cumulative = -0.000194557
smoothSolver:  Solving for nuTilda, Initial residual = 0.000710739, Final residual = 5.8832e-06, No Iterations 2
bounding nuTilda, min: -7.63179e-06 max: 0.000101827 average: 7.91716e-05
ExecutionTime = 15.06 s  ClockTime = 15 s

forceCoeffs forceCoeffs execute:
    Coefficients
        Cd       : 0.00320735	(pressure: 0	viscous: 0.00320735)
        Cs       : 0	(pressure: 0	viscous: 0)
        Cl       : -0.00155317	(pressure: -0.00155149	viscous: -1.67516e-06)
        CmRoll       : 9.70729e-07	(pressure: 9.69682e-07	viscous: 1.04698e-09)
        CmPitch       : 0.000356826	(pressure: 0.000356848	viscous: -2.14033e-08)
        CmYaw       : 2.00459e-06	(pressure: 0	viscous: 2.00459e-06)
        Cd(f)    : 0.00160464
        Cd(r)    : 0.0016027
        Cs(f)    : 2.00459e-06
        Cs(r)    : -2.00459e-06
        Cl(f)    : -0.000419757
        Cl(r)    : -0.00113341
forces forces write:
    Sum of forces
        Total    : (0 0 0)
        Pressure : (0 0 0)
        Viscous  : (0 0 0)
    Sum of moments
        Total    : (0 0 0)
        Pressure : (0 0 0)
        Viscous  : (0 0 0)


Time = 989

smoothSolver:  Solving for Ux, Initial residual = 8.33079e-05, Final residual = 5.37785e-06, No Iterations 2
smoothSolver:  Solving for Uy, Initial residual = 0.00171814, Final residual = 7.92659e-05, No Iterations 4
GAMG:  Solving for p, Initial residual = 0.0101835, Final residual = 0.000381319, No Iterations 2
time step continuity errors : sum local = 1.60749e-05, global = 6.20182e-10, cumulative = -0.000194556
smoothSolver:  Solving for nuTilda, Initial residual = 8.99779e-05, Final residual = 5.42372e-06, No Iterations 2
bounding nuTilda, min: -2.47459e-06 max: 0.00010187 average: 7.91754e-05
ExecutionTime = 15.08 s  ClockTime = 15 s

forceCoeffs forceCoeffs execute:
    Coefficients
        Cd       : 0.00319614	(pressure: 0	viscous: 0.00319614)
        Cs       : 0	(pressure: 0	viscous: 0)
        Cl       : -0.00154417	(pressure: -0.00154584	viscous: 1.66683e-06)
        CmRoll       : 9.65106e-07	(pressure: 9.66148e-07	viscous: -1.04177e-09)
        CmPitch       : 0.000356294	(pressure: 0.000356431	viscous: -1.36701e-07)
        CmYaw       : 1.99758e-06	(pressure: 0	viscous: 1.99758e-06)
        Cd(f)    : 0.00159903
        Cd(r)    : 0.0015971
        Cs(f)    : 1.99758e-06
        Cs(r)    : -1.99758e-06
        Cl(f)    : -0.000415791
        Cl(r)    : -0.00112838
forces forces write:
    Sum of forces
        Total    : (0 0 0)
        Pressure : (0 0 0)
        Viscous  : (0 0 0)
    Sum of moments
        Total    : (0 0 0)
        Pressure : (0 0 0)
        Viscous  : (0 0 0)


Time = 990

smoothSolver:  Solving for Ux, Initial residual = 0.000123887, Final residual = 7.26819e-06, No Iterations 2
smoothSolver:  Solving for Uy, Initial residual = 0.00171004, Final residual = 8.0242e-05, No Iterations 4
GAMG:  Solving for p, Initial residual = 0.0097913, Final residual = 0.000378352, No Iterations 2
time step continuity errors : sum local = 1.58279e-05, global = -2.32094e-10, cumulative = -0.000194556
smoothSolver:  Solving for nuTilda, Initial residual = 0.000710739, Final residual = 5.8832e-06, No Iterations 2
bounding nuTilda, min: -7.63179e-06 max: 0.000101827 average: 7.91716e-05
ExecutionTime = 15.1 s  ClockTime = 15 s

forceCoeffs forceCoeffs execute:
    Coefficients
        Cd       : 0.00320735	(pressure: 0	viscous: 0.00320735)
        Cs       : 0	(pressure: 0	viscous: 0)
        Cl       : -0.00155317	(pressure: -0.00155149	viscous: -1.67516e-06)
        CmRoll       : 9.70729e-07	(pressure: 9.69682e-07	viscous: 1.04698e-09)
        CmPitch       : 0.000356826	(pressure: 0.000356848	viscous: -2.14033e-08)
        CmYaw       : 2.00459e-06	(pressure: 0	viscous: 2.00459e-06)
        Cd(f)    : 0.00160464
        Cd(r)    : 0.0016027
        Cs(f)    : 2.00459e-06
        Cs(r)    : -2.00459e-06
        Cl(f)    : -0.000419757
        Cl(r)    : -0.00113341
forces forces write:
    Sum of forces
        Total    : (0 0 0)
        Pressure : (0 0 0)
        Viscous  : (0 0 0)
    Sum of moments
        Total    : (0 0 0)
        Pressure : (0 0 0)
        Viscous  : (0 0 0)


Time = 991

smoothSolver:  Solving for Ux, Initial residual = 8.33079e-05, Final residual = 5.37785e-06, No Iterations 2
smoothSolver:  Solving for Uy, Initial residual = 0.00171814, Final residual = 7.92659e-05, No Iterations 4
GAMG:  Solving for p, Initial residual = 0.0101835, Final residual = 0.000381319, No Iterations 2
time step continuity errors : sum local = 1.60749e-05, global = 6.20182e-10, cumulative = -0.000194556
smoothSolver:  Solving for nuTilda, Initial residual = 8.99779e-05, Final residual = 5.42372e-06, No Iterations 2
bounding nuTilda, min: -2.47459e-06 max: 0.00010187 average: 7.91754e-05
ExecutionTime = 15.1 s  ClockTime = 15 s

forceCoeffs forceCoeffs execute:
    Coefficients
        Cd       : 0.00319614	(pressure: 0	viscous: 0.00319614)
        Cs       : 0	(pressure: 0	viscous: 0)
        Cl       : -0.00154417	(pressure: -0.00154584	viscous: 1.66683e-06)
        CmRoll       : 9.65106e-07	(pressure: 9.66148e-07	viscous: -1.04177e-09)
        CmPitch       : 0.000356294	(pressure: 0.000356431	viscous: -1.36701e-07)
        CmYaw       : 1.99758e-06	(pressure: 0	viscous: 1.99758e-06)
        Cd(f)    : 0.00159903
        Cd(r)    : 0.0015971
        Cs(f)    : 1.99758e-06
        Cs(r)    : -1.99758e-06
        Cl(f)    : -0.000415791
        Cl(r)    : -0.00112838
forces forces write:
    Sum of forces
        Total    : (0 0 0)
        Pressure : (0 0 0)
        Viscous  : (0 0 0)
    Sum of moments
        Total    : (0 0 0)
        Pressure : (0 0 0)
        Viscous  : (0 0 0)


Time = 992

smoothSolver:  Solving for Ux, Initial residual = 0.000123887, Final residual = 7.26819e-06, No Iterations 2
smoothSolver:  Solving for Uy, Initial residual = 0.00171004, Final residual = 8.0242e-05, No Iterations 4
GAMG:  Solving for p, Initial residual = 0.0097913, Final residual = 0.000378352, No Iterations 2
time step continuity errors : sum local = 1.58279e-05, global = -2.32094e-10, cumulative = -0.000194556
smoothSolver:  Solving for nuTilda, Initial residual = 0.000710739, Final residual = 5.8832e-06, No Iterations 2
bounding nuTilda, min: -7.63179e-06 max: 0.000101827 average: 7.91716e-05
ExecutionTime = 15.12 s  ClockTime = 15 s

forceCoeffs forceCoeffs execute:
    Coefficients
        Cd       : 0.00320735	(pressure: 0	viscous: 0.00320735)
        Cs       : 0	(pressure: 0	viscous: 0)
        Cl       : -0.00155317	(pressure: -0.00155149	viscous: -1.67516e-06)
        CmRoll       : 9.70729e-07	(pressure: 9.69682e-07	viscous: 1.04698e-09)
        CmPitch       : 0.000356826	(pressure: 0.000356848	viscous: -2.14033e-08)
        CmYaw       : 2.00459e-06	(pressure: 0	viscous: 2.00459e-06)
        Cd(f)    : 0.00160464
        Cd(r)    : 0.0016027
        Cs(f)    : 2.00459e-06
        Cs(r)    : -2.00459e-06
        Cl(f)    : -0.000419757
        Cl(r)    : -0.00113341
forces forces write:
    Sum of forces
        Total    : (0 0 0)
        Pressure : (0 0 0)
        Viscous  : (0 0 0)
    Sum of moments
        Total    : (0 0 0)
        Pressure : (0 0 0)
        Viscous  : (0 0 0)


Time = 993

smoothSolver:  Solving for Ux, Initial residual = 8.33079e-05, Final residual = 5.37785e-06, No Iterations 2
smoothSolver:  Solving for Uy, Initial residual = 0.00171814, Final residual = 7.92659e-05, No Iterations 4
GAMG:  Solving for p, Initial residual = 0.0101835, Final residual = 0.000381319, No Iterations 2
time step continuity errors : sum local = 1.60749e-05, global = 6.20182e-10, cumulative = -0.000194555
smoothSolver:  Solving for nuTilda, Initial residual = 8.99779e-05, Final residual = 5.42372e-06, No Iterations 2
bounding nuTilda, min: -2.47459e-06 max: 0.00010187 average: 7.91754e-05
ExecutionTime = 15.13 s  ClockTime = 15 s

forceCoeffs forceCoeffs execute:
    Coefficients
        Cd       : 0.00319614	(pressure: 0	viscous: 0.00319614)
        Cs       : 0	(pressure: 0	viscous: 0)
        Cl       : -0.00154417	(pressure: -0.00154584	viscous: 1.66683e-06)
        CmRoll       : 9.65106e-07	(pressure: 9.66148e-07	viscous: -1.04177e-09)
        CmPitch       : 0.000356294	(pressure: 0.000356431	viscous: -1.36701e-07)
        CmYaw       : 1.99758e-06	(pressure: 0	viscous: 1.99758e-06)
        Cd(f)    : 0.00159903
        Cd(r)    : 0.0015971
        Cs(f)    : 1.99758e-06
        Cs(r)    : -1.99758e-06
        Cl(f)    : -0.000415791
        Cl(r)    : -0.00112838
forces forces write:
    Sum of forces
        Total    : (0 0 0)
        Pressure : (0 0 0)
        Viscous  : (0 0 0)
    Sum of moments
        Total    : (0 0 0)
        Pressure : (0 0 0)
        Viscous  : (0 0 0)


Time = 994

smoothSolver:  Solving for Ux, Initial residual = 0.000123887, Final residual = 7.26819e-06, No Iterations 2
smoothSolver:  Solving for Uy, Initial residual = 0.00171004, Final residual = 8.0242e-05, No Iterations 4
GAMG:  Solving for p, Initial residual = 0.0097913, Final residual = 0.000378352, No Iterations 2
time step continuity errors : sum local = 1.58279e-05, global = -2.32094e-10, cumulative = -0.000194556
smoothSolver:  Solving for nuTilda, Initial residual = 0.000710739, Final residual = 5.8832e-06, No Iterations 2
bounding nuTilda, min: -7.63179e-06 max: 0.000101827 average: 7.91716e-05
ExecutionTime = 15.14 s  ClockTime = 15 s

forceCoeffs forceCoeffs execute:
    Coefficients
        Cd       : 0.00320735	(pressure: 0	viscous: 0.00320735)
        Cs       : 0	(pressure: 0	viscous: 0)
        Cl       : -0.00155317	(pressure: -0.00155149	viscous: -1.67516e-06)
        CmRoll       : 9.70729e-07	(pressure: 9.69682e-07	viscous: 1.04698e-09)
        CmPitch       : 0.000356826	(pressure: 0.000356848	viscous: -2.14033e-08)
        CmYaw       : 2.00459e-06	(pressure: 0	viscous: 2.00459e-06)
        Cd(f)    : 0.00160464
        Cd(r)    : 0.0016027
        Cs(f)    : 2.00459e-06
        Cs(r)    : -2.00459e-06
        Cl(f)    : -0.000419757
        Cl(r)    : -0.00113341
forces forces write:
    Sum of forces
        Total    : (0 0 0)
        Pressure : (0 0 0)
        Viscous  : (0 0 0)
    Sum of moments
        Total    : (0 0 0)
        Pressure : (0 0 0)
        Viscous  : (0 0 0)


Time = 995

smoothSolver:  Solving for Ux, Initial residual = 8.33079e-05, Final residual = 5.37785e-06, No Iterations 2
smoothSolver:  Solving for Uy, Initial residual = 0.00171814, Final residual = 7.92659e-05, No Iterations 4
GAMG:  Solving for p, Initial residual = 0.0101835, Final residual = 0.000381319, No Iterations 2
time step continuity errors : sum local = 1.60749e-05, global = 6.20182e-10, cumulative = -0.000194555
smoothSolver:  Solving for nuTilda, Initial residual = 8.99779e-05, Final residual = 5.42372e-06, No Iterations 2
bounding nuTilda, min: -2.47459e-06 max: 0.00010187 average: 7.91754e-05
ExecutionTime = 15.16 s  ClockTime = 15 s

forceCoeffs forceCoeffs execute:
    Coefficients
        Cd       : 0.00319614	(pressure: 0	viscous: 0.00319614)
        Cs       : 0	(pressure: 0	viscous: 0)
        Cl       : -0.00154417	(pressure: -0.00154584	viscous: 1.66683e-06)
        CmRoll       : 9.65106e-07	(pressure: 9.66148e-07	viscous: -1.04177e-09)
        CmPitch       : 0.000356294	(pressure: 0.000356431	viscous: -1.36701e-07)
        CmYaw       : 1.99758e-06	(pressure: 0	viscous: 1.99758e-06)
        Cd(f)    : 0.00159903
        Cd(r)    : 0.0015971
        Cs(f)    : 1.99758e-06
        Cs(r)    : -1.99758e-06
        Cl(f)    : -0.000415791
        Cl(r)    : -0.00112838
forces forces write:
    Sum of forces
        Total    : (0 0 0)
        Pressure : (0 0 0)
        Viscous  : (0 0 0)
    Sum of moments
        Total    : (0 0 0)
        Pressure : (0 0 0)
        Viscous  : (0 0 0)


Time = 996

smoothSolver:  Solving for Ux, Initial residual = 0.000123887, Final residual = 7.26819e-06, No Iterations 2
smoothSolver:  Solving for Uy, Initial residual = 0.00171004, Final residual = 8.0242e-05, No Iterations 4
GAMG:  Solving for p, Initial residual = 0.0097913, Final residual = 0.000378352, No Iterations 2
time step continuity errors : sum local = 1.58279e-05, global = -2.32094e-10, cumulative = -0.000194555
smoothSolver:  Solving for nuTilda, Initial residual = 0.000710739, Final residual = 5.8832e-06, No Iterations 2
bounding nuTilda, min: -7.63179e-06 max: 0.000101827 average: 7.91716e-05
ExecutionTime = 15.18 s  ClockTime = 15 s

forceCoeffs forceCoeffs execute:
    Coefficients
        Cd       : 0.00320735	(pressure: 0	viscous: 0.00320735)
        Cs       : 0	(pressure: 0	viscous: 0)
        Cl       : -0.00155317	(pressure: -0.00155149	viscous: -1.67516e-06)
        CmRoll       : 9.70729e-07	(pressure: 9.69682e-07	viscous: 1.04698e-09)
        CmPitch       : 0.000356826	(pressure: 0.000356848	viscous: -2.14033e-08)
        CmYaw       : 2.00459e-06	(pressure: 0	viscous: 2.00459e-06)
        Cd(f)    : 0.00160464
        Cd(r)    : 0.0016027
        Cs(f)    : 2.00459e-06
        Cs(r)    : -2.00459e-06
        Cl(f)    : -0.000419757
        Cl(r)    : -0.00113341
forces forces write:
    Sum of forces
        Total    : (0 0 0)
        Pressure : (0 0 0)
        Viscous  : (0 0 0)
    Sum of moments
        Total    : (0 0 0)
        Pressure : (0 0 0)
        Viscous  : (0 0 0)


Time = 997

smoothSolver:  Solving for Ux, Initial residual = 8.33079e-05, Final residual = 5.37785e-06, No Iterations 2
smoothSolver:  Solving for Uy, Initial residual = 0.00171814, Final residual = 7.92659e-05, No Iterations 4
GAMG:  Solving for p, Initial residual = 0.0101835, Final residual = 0.000381319, No Iterations 2
time step continuity errors : sum local = 1.60749e-05, global = 6.20182e-10, cumulative = -0.000194555
smoothSolver:  Solving for nuTilda, Initial residual = 8.99779e-05, Final residual = 5.42372e-06, No Iterations 2
bounding nuTilda, min: -2.47459e-06 max: 0.00010187 average: 7.91754e-05
ExecutionTime = 15.19 s  ClockTime = 15 s

forceCoeffs forceCoeffs execute:
    Coefficients
        Cd       : 0.00319614	(pressure: 0	viscous: 0.00319614)
        Cs       : 0	(pressure: 0	viscous: 0)
        Cl       : -0.00154417	(pressure: -0.00154584	viscous: 1.66683e-06)
        CmRoll       : 9.65106e-07	(pressure: 9.66148e-07	viscous: -1.04177e-09)
        CmPitch       : 0.000356294	(pressure: 0.000356431	viscous: -1.36701e-07)
        CmYaw       : 1.99758e-06	(pressure: 0	viscous: 1.99758e-06)
        Cd(f)    : 0.00159903
        Cd(r)    : 0.0015971
        Cs(f)    : 1.99758e-06
        Cs(r)    : -1.99758e-06
        Cl(f)    : -0.000415791
        Cl(r)    : -0.00112838
forces forces write:
    Sum of forces
        Total    : (0 0 0)
        Pressure : (0 0 0)
        Viscous  : (0 0 0)
    Sum of moments
        Total    : (0 0 0)
        Pressure : (0 0 0)
        Viscous  : (0 0 0)


Time = 998

smoothSolver:  Solving for Ux, Initial residual = 0.000123887, Final residual = 7.26819e-06, No Iterations 2
smoothSolver:  Solving for Uy, Initial residual = 0.00171004, Final residual = 8.0242e-05, No Iterations 4
GAMG:  Solving for p, Initial residual = 0.0097913, Final residual = 0.000378352, No Iterations 2
time step continuity errors : sum local = 1.58279e-05, global = -2.32094e-10, cumulative = -0.000194555
smoothSolver:  Solving for nuTilda, Initial residual = 0.000710739, Final residual = 5.8832e-06, No Iterations 2
bounding nuTilda, min: -7.63179e-06 max: 0.000101827 average: 7.91716e-05
ExecutionTime = 15.21 s  ClockTime = 15 s

forceCoeffs forceCoeffs execute:
    Coefficients
        Cd       : 0.00320735	(pressure: 0	viscous: 0.00320735)
        Cs       : 0	(pressure: 0	viscous: 0)
        Cl       : -0.00155317	(pressure: -0.00155149	viscous: -1.67516e-06)
        CmRoll       : 9.70729e-07	(pressure: 9.69682e-07	viscous: 1.04698e-09)
        CmPitch       : 0.000356826	(pressure: 0.000356848	viscous: -2.14033e-08)
        CmYaw       : 2.00459e-06	(pressure: 0	viscous: 2.00459e-06)
        Cd(f)    : 0.00160464
        Cd(r)    : 0.0016027
        Cs(f)    : 2.00459e-06
        Cs(r)    : -2.00459e-06
        Cl(f)    : -0.000419757
        Cl(r)    : -0.00113341
forces forces write:
    Sum of forces
        Total    : (0 0 0)
        Pressure : (0 0 0)
        Viscous  : (0 0 0)
    Sum of moments
        Total    : (0 0 0)
        Pressure : (0 0 0)
        Viscous  : (0 0 0)


Time = 999

smoothSolver:  Solving for Ux, Initial residual = 8.33079e-05, Final residual = 5.37785e-06, No Iterations 2
smoothSolver:  Solving for Uy, Initial residual = 0.00171814, Final residual = 7.92659e-05, No Iterations 4
GAMG:  Solving for p, Initial residual = 0.0101835, Final residual = 0.000381319, No Iterations 2
time step continuity errors : sum local = 1.60749e-05, global = 6.20182e-10, cumulative = -0.000194554
smoothSolver:  Solving for nuTilda, Initial residual = 8.99779e-05, Final residual = 5.42372e-06, No Iterations 2
bounding nuTilda, min: -2.47459e-06 max: 0.00010187 average: 7.91754e-05
ExecutionTime = 15.22 s  ClockTime = 15 s

forceCoeffs forceCoeffs execute:
    Coefficients
        Cd       : 0.00319614	(pressure: 0	viscous: 0.00319614)
        Cs       : 0	(pressure: 0	viscous: 0)
        Cl       : -0.00154417	(pressure: -0.00154584	viscous: 1.66683e-06)
        CmRoll       : 9.65106e-07	(pressure: 9.66148e-07	viscous: -1.04177e-09)
        CmPitch       : 0.000356294	(pressure: 0.000356431	viscous: -1.36701e-07)
        CmYaw       : 1.99758e-06	(pressure: 0	viscous: 1.99758e-06)
        Cd(f)    : 0.00159903
        Cd(r)    : 0.0015971
        Cs(f)    : 1.99758e-06
        Cs(r)    : -1.99758e-06
        Cl(f)    : -0.000415791
        Cl(r)    : -0.00112838
forces forces write:
    Sum of forces
        Total    : (0 0 0)
        Pressure : (0 0 0)
        Viscous  : (0 0 0)
    Sum of moments
        Total    : (0 0 0)
        Pressure : (0 0 0)
        Viscous  : (0 0 0)


Time = 1000

smoothSolver:  Solving for Ux, Initial residual = 0.000123887, Final residual = 7.26819e-06, No Iterations 2
smoothSolver:  Solving for Uy, Initial residual = 0.00171004, Final residual = 8.0242e-05, No Iterations 4
GAMG:  Solving for p, Initial residual = 0.0097913, Final residual = 0.000378352, No Iterations 2
time step continuity errors : sum local = 1.58279e-05, global = -2.32094e-10, cumulative = -0.000194554
smoothSolver:  Solving for nuTilda, Initial residual = 0.000710739, Final residual = 5.8832e-06, No Iterations 2
bounding nuTilda, min: -7.63179e-06 max: 0.000101827 average: 7.91716e-05
ExecutionTime = 15.27 s  ClockTime = 15 s

forceCoeffs forceCoeffs execute:
    Coefficients
        Cd       : 0.00320735	(pressure: 0	viscous: 0.00320735)
        Cs       : 0	(pressure: 0	viscous: 0)
        Cl       : -0.00155317	(pressure: -0.00155149	viscous: -1.67516e-06)
        CmRoll       : 9.70729e-07	(pressure: 9.69682e-07	viscous: 1.04698e-09)
        CmPitch       : 0.000356826	(pressure: 0.000356848	viscous: -2.14033e-08)
        CmYaw       : 2.00459e-06	(pressure: 0	viscous: 2.00459e-06)
        Cd(f)    : 0.00160464
        Cd(r)    : 0.0016027
        Cs(f)    : 2.00459e-06
        Cs(r)    : -2.00459e-06
        Cl(f)    : -0.000419757
        Cl(r)    : -0.00113341
forces forces write:
    Sum of forces
        Total    : (0 0 0)
        Pressure : (0 0 0)
        Viscous  : (0 0 0)
    Sum of moments
        Total    : (0 0 0)
        Pressure : (0 0 0)
        Viscous  : (0 0 0)


End

