/*---------------------------------------------------------------------------*\
| =========                 |                                                 |
| \\      /  F ield         | OpenFOAM: The Open Source CFD Toolbox           |
|  \\    /   O peration     | Version:  v1912                                 |
|   \\  /    A nd           | Website:  www.openfoam.com                      |
|    \\/     M anipulation  |                                                 |
\*---------------------------------------------------------------------------*/
Build  : _f3950763fe-20191219 OPENFOAM=1912
Arch   : "LSB;label=32;scalar=64"
Exec   : simpleFoam
Date   : Jun 09 2020
Time   : 09:07:39
Host   : DESKTOP-7S8DQ3L
PID    : 2256
I/O    : uncollated
Case   : /home/logankp/OpenFOAM/logankp-v1912/run/CFD/airfoil-0-sparse
nProcs : 1
trapFpe: Floating point exception trapping enabled (FOAM_SIGFPE).
fileModificationChecking : Monitoring run-time modified files using timeStampMaster (fileModificationSkew 10)
allowSystemOperations : Allowing user-supplied system call operations

// * * * * * * * * * * * * * * * * * * * * * * * * * * * * * * * * * * * * * //
Create time

Create mesh for time = 0


SIMPLE: convergence criteria
    field p	 tolerance 1e-05
    field U	 tolerance 1e-06
    field "(k|epsilon|omega|nuTilda|f|v2)"	 tolerance 1e-06

Reading field p

Reading field U

Reading/calculating face flux field phi

Selecting incompressible transport model Newtonian
Selecting turbulence model type RAS
Selecting RAS turbulence model SpalartAllmaras
Selecting patchDistMethod meshWave
RAS
{
    RASModel        SpalartAllmaras;
    turbulence      on;
    printCoeffs     on;
    sigmaNut        0.66666;
    kappa           0.41;
    Cb1             0.1355;
    Cb2             0.622;
    Cw2             0.3;
    Cw3             2;
    Cv1             7.1;
    Cs              0.3;
}

No MRF models present

No finite volume options present

Starting time loop

forceCoeffs forceCoeffs:
    rho: rhoInf
    Freestream density (rhoInf) set to 1.2255
    Not including porosity effects

forces forces:
    rho: rhoInf
    Freestream density (rhoInf) set to 1
    Not including porosity effects

Time = 1

smoothSolver:  Solving for Ux, Initial residual = 1, Final residual = 0.080159, No Iterations 4
smoothSolver:  Solving for Uy, Initial residual = 1, Final residual = 0.0752828, No Iterations 3
GAMG:  Solving for p, Initial residual = 1, Final residual = 0.0620166, No Iterations 6
time step continuity errors : sum local = 0.0098494, global = -0.00179806, cumulative = -0.00179806
smoothSolver:  Solving for nuTilda, Initial residual = 1, Final residual = 0.046189, No Iterations 2
ExecutionTime = 0.08 s  ClockTime = 0 s

forceCoeffs forceCoeffs execute:
    Coefficients
        Cd       : -0.00274474	(pressure: 0.0216418	viscous: -0.0243865)
        Cs       : -1.81278e-18	(pressure: 2.83312e-18	viscous: -4.6459e-18)
        Cl       : -0.170974	(pressure: -0.171935	viscous: 0.000961022)
        CmRoll       : 0.000854869	(pressure: 0.000859674	viscous: -4.80511e-06)
        CmPitch       : 0.093127	(pressure: 0.0941481	viscous: -0.00102112)
        CmYaw       : -1.37237e-05	(pressure: 0.000108209	viscous: -0.000121933)
        Cd(f)    : -0.000517499
        Cd(r)    : -0.00222724
        Cs(f)    : -1.37237e-05
        Cs(r)    : 1.37237e-05
        Cl(f)    : 0.00764004
        Cl(r)    : -0.178614
forces forces write:
    Sum of forces
        Total    : (-0.0085773 -0.534293 5.66493e-18)
        Pressure : (0.0676307 -0.537297 -8.8535e-18)
        Viscous  : (-0.076208 0.00300319 1.45184e-17)
    Sum of moments
        Total    : (0.00267147 -4.28865e-05 -0.291022)
        Pressure : (0.00268648 0.000338153 -0.294213)
        Viscous  : (-1.5016e-05 -0.00038104 0.003191)


Time = 2

smoothSolver:  Solving for Ux, Initial residual = 0.0540259, Final residual = 0.00336895, No Iterations 2
smoothSolver:  Solving for Uy, Initial residual = 0.473561, Final residual = 0.0395251, No Iterations 1
GAMG:  Solving for p, Initial residual = 0.16708, Final residual = 0.013753, No Iterations 5
time step continuity errors : sum local = 0.0374948, global = 0.00903387, cumulative = 0.0072358
smoothSolver:  Solving for nuTilda, Initial residual = 0.0384549, Final residual = 0.0033645, No Iterations 2
ExecutionTime = 0.08 s  ClockTime = 0 s

forceCoeffs forceCoeffs execute:
    Coefficients
        Cd       : -0.00182019	(pressure: 0.0335791	viscous: -0.0353992)
        Cs       : 5.01632e-18	(pressure: 4.95203e-18	viscous: 6.42874e-20)
        Cl       : -0.245401	(pressure: -0.246102	viscous: 0.000701651)
        CmRoll       : 0.001227	(pressure: 0.00123051	viscous: -3.50825e-06)
        CmPitch       : 0.0987326	(pressure: 0.0997063	viscous: -0.000973643)
        CmYaw       : -9.10093e-06	(pressure: 0.000167895	viscous: -0.000176996)
        Cd(f)    : 0.000316911
        Cd(r)    : -0.0021371
        Cs(f)    : -9.10093e-06
        Cs(r)    : 9.10093e-06
        Cl(f)    : -0.0239678
        Cl(r)    : -0.221433
forces forces write:
    Sum of forces
        Total    : (-0.00568808 -0.766877 -1.5676e-17)
        Pressure : (0.104935 -0.76907 -1.54751e-17)
        Viscous  : (-0.110623 0.00219266 -2.00898e-19)
    Sum of moments
        Total    : (0.00383439 -2.84404e-05 -0.308539)
        Pressure : (0.00384535 0.000524673 -0.311582)
        Viscous  : (-1.09633e-05 -0.000553113 0.00304263)


Time = 3

smoothSolver:  Solving for Ux, Initial residual = 0.0613213, Final residual = 0.00377638, No Iterations 2
smoothSolver:  Solving for Uy, Initial residual = 0.444443, Final residual = 0.0237699, No Iterations 1
GAMG:  Solving for p, Initial residual = 0.172307, Final residual = 0.0132613, No Iterations 4
time step continuity errors : sum local = 0.0423571, global = 0.0125471, cumulative = 0.0197829
smoothSolver:  Solving for nuTilda, Initial residual = 0.0876938, Final residual = 0.00571337, No Iterations 1
ExecutionTime = 0.08 s  ClockTime = 0 s

forceCoeffs forceCoeffs execute:
    Coefficients
        Cd       : 0.0326907	(pressure: 0.0502781	viscous: -0.0175874)
        Cs       : 5.05153e-18	(pressure: 4.52614e-18	viscous: 5.25394e-19)
        Cl       : -0.276646	(pressure: -0.278271	viscous: 0.00162462)
        CmRoll       : 0.00138323	(pressure: 0.00139135	viscous: -8.12309e-06)
        CmPitch       : 0.0841699	(pressure: 0.085795	viscous: -0.00162506)
        CmYaw       : 0.000163453	(pressure: 0.00025139	viscous: -8.7937e-05)
        Cd(f)    : 0.0177286
        Cd(r)    : 0.0149621
        Cs(f)    : 0.000163453
        Cs(r)    : -0.000163453
        Cl(f)    : -0.0541532
        Cl(r)    : -0.222493
forces forces write:
    Sum of forces
        Total    : (0.102158 -0.86452 -1.5786e-17)
        Pressure : (0.157119 -0.869597 -1.41442e-17)
        Viscous  : (-0.0549607 0.00507693 -1.64186e-18)
    Sum of moments
        Total    : (0.0043226 0.000510792 -0.263031)
        Pressure : (0.00434798 0.000785595 -0.268109)
        Viscous  : (-2.53846e-05 -0.000274803 0.00507832)


Time = 4

smoothSolver:  Solving for Ux, Initial residual = 0.0457745, Final residual = 0.00351249, No Iterations 2
smoothSolver:  Solving for Uy, Initial residual = 0.360957, Final residual = 0.0156973, No Iterations 1
GAMG:  Solving for p, Initial residual = 0.137457, Final residual = 0.0103056, No Iterations 4
time step continuity errors : sum local = 0.0346708, global = 0.0120194, cumulative = 0.0318023
smoothSolver:  Solving for nuTilda, Initial residual = 0.0152524, Final residual = 0.00148485, No Iterations 3
ExecutionTime = 0.1 s  ClockTime = 0 s

forceCoeffs forceCoeffs execute:
    Coefficients
        Cd       : 0.0552675	(pressure: 0.0588791	viscous: -0.00361157)
        Cs       : 3.27931e-18	(pressure: 3.02765e-18	viscous: 2.51658e-19)
        Cl       : -0.353439	(pressure: -0.354008	viscous: 0.000568606)
        CmRoll       : 0.0017672	(pressure: 0.00177004	viscous: -2.84303e-06)
        CmPitch       : 0.111564	(pressure: 0.112115	viscous: -0.000551333)
        CmYaw       : 0.000276338	(pressure: 0.000294396	viscous: -1.80579e-05)
        Cd(f)    : 0.029401
        Cd(r)    : 0.0258666
        Cs(f)    : 0.000276338
        Cs(r)    : -0.000276338
        Cl(f)    : -0.0651557
        Cl(r)    : -0.288284
forces forces write:
    Sum of forces
        Total    : (0.172711 -1.1045 -1.02478e-17)
        Pressure : (0.183997 -1.10628 -9.46141e-18)
        Viscous  : (-0.0112862 0.00177689 -7.86431e-19)
    Sum of moments
        Total    : (0.00552249 0.000863555 -0.348638)
        Pressure : (0.00553138 0.000919986 -0.350361)
        Viscous  : (-8.88447e-06 -5.64308e-05 0.00172292)


Time = 5

smoothSolver:  Solving for Ux, Initial residual = 0.0382303, Final residual = 0.00348208, No Iterations 2
smoothSolver:  Solving for Uy, Initial residual = 0.26171, Final residual = 0.0145814, No Iterations 1
GAMG:  Solving for p, Initial residual = 0.113774, Final residual = 0.00803621, No Iterations 3
time step continuity errors : sum local = 0.0295741, global = -0.00415929, cumulative = 0.027643
smoothSolver:  Solving for nuTilda, Initial residual = 0.0138286, Final residual = 0.00118837, No Iterations 3
bounding nuTilda, min: -2.98425e-05 max: 0.00910262 average: 0.00114081
ExecutionTime = 0.1 s  ClockTime = 0 s

forceCoeffs forceCoeffs execute:
    Coefficients
        Cd       : 0.0559662	(pressure: 0.057153	viscous: -0.00118679)
        Cs       : 2.00656e-18	(pressure: 2.1092e-18	viscous: -1.02642e-19)
        Cl       : -0.43039	(pressure: -0.430597	viscous: 0.000207067)
        CmRoll       : 0.00215195	(pressure: 0.00215299	viscous: -1.03533e-06)
        CmPitch       : 0.147702	(pressure: 0.147961	viscous: -0.000259249)
        CmYaw       : 0.000279831	(pressure: 0.000285765	viscous: -5.93394e-06)
        Cd(f)    : 0.0301351
        Cd(r)    : 0.0258312
        Cs(f)    : 0.000279831
        Cs(r)    : -0.000279831
        Cl(f)    : -0.0674933
        Cl(r)    : -0.362897
forces forces write:
    Sum of forces
        Total    : (0.174895 -1.34497 -6.27051e-18)
        Pressure : (0.178603 -1.34562 -6.59126e-18)
        Viscous  : (-0.00370871 0.000647084 3.20758e-19)
    Sum of moments
        Total    : (0.00672485 0.000874473 -0.461568)
        Pressure : (0.00672808 0.000893016 -0.462378)
        Viscous  : (-3.23542e-06 -1.85436e-05 0.000810152)


Time = 6

smoothSolver:  Solving for Ux, Initial residual = 0.0319839, Final residual = 0.00195501, No Iterations 3
smoothSolver:  Solving for Uy, Initial residual = 0.192896, Final residual = 0.0146109, No Iterations 1
GAMG:  Solving for p, Initial residual = 0.107623, Final residual = 0.00734668, No Iterations 3
time step continuity errors : sum local = 0.0256084, global = 6.96857e-05, cumulative = 0.0277127
smoothSolver:  Solving for nuTilda, Initial residual = 0.00982364, Final residual = 0.00084273, No Iterations 3
ExecutionTime = 0.1 s  ClockTime = 0 s

forceCoeffs forceCoeffs execute:
    Coefficients
        Cd       : 0.0529864	(pressure: 0.0522734	viscous: 0.000712954)
        Cs       : 1.32737e-18	(pressure: 1.53017e-18	viscous: -2.02803e-19)
        Cl       : -0.497316	(pressure: -0.497389	viscous: 7.28989e-05)
        CmRoll       : 0.00248658	(pressure: 0.00248694	viscous: -3.64494e-07)
        CmPitch       : 0.178736	(pressure: 0.178847	viscous: -0.000110746)
        CmYaw       : 0.000264932	(pressure: 0.000261367	viscous: 3.56477e-06)
        Cd(f)    : 0.0289798
        Cd(r)    : 0.0240066
        Cs(f)    : 0.000264932
        Cs(r)    : -0.000264932
        Cl(f)    : -0.0699216
        Cl(r)    : -0.427394
forces forces write:
    Sum of forces
        Total    : (0.165582 -1.55411 -4.14803e-18)
        Pressure : (0.163354 -1.55434 -4.78179e-18)
        Viscous  : (0.00222798 0.000227809 6.3376e-19)
    Sum of moments
        Total    : (0.00777056 0.000827912 -0.558551)
        Pressure : (0.0077717 0.000816772 -0.558898)
        Viscous  : (-1.13904e-06 1.11399e-05 0.00034608)


Time = 7

smoothSolver:  Solving for Ux, Initial residual = 0.0310856, Final residual = 0.00184211, No Iterations 3
smoothSolver:  Solving for Uy, Initial residual = 0.152954, Final residual = 0.0138068, No Iterations 1
GAMG:  Solving for p, Initial residual = 0.110915, Final residual = 0.00749794, No Iterations 3
time step continuity errors : sum local = 0.0254053, global = 0.000544586, cumulative = 0.0282573
smoothSolver:  Solving for nuTilda, Initial residual = 0.00933378, Final residual = 0.000607523, No Iterations 3
ExecutionTime = 0.1 s  ClockTime = 0 s

forceCoeffs forceCoeffs execute:
    Coefficients
        Cd       : 0.0465333	(pressure: 0.0450689	viscous: 0.0014644)
        Cs       : 1.00932e-18	(pressure: 1.10652e-18	viscous: -9.72055e-20)
        Cl       : -0.516827	(pressure: -0.516857	viscous: 3.01933e-05)
        CmRoll       : 0.00258413	(pressure: 0.00258429	viscous: -1.50966e-07)
        CmPitch       : 0.183559	(pressure: 0.183597	viscous: -3.83365e-05)
        CmYaw       : 0.000232667	(pressure: 0.000225345	viscous: 7.32199e-06)
        Cd(f)    : 0.0258508
        Cd(r)    : 0.0206825
        Cs(f)    : 0.000232667
        Cs(r)    : -0.000232667
        Cl(f)    : -0.0748544
        Cl(r)    : -0.441973
forces forces write:
    Sum of forces
        Total    : (0.145417 -1.61508 -3.15412e-18)
        Pressure : (0.14084 -1.61518 -3.45789e-18)
        Viscous  : (0.00457624 9.4354e-05 3.03767e-19)
    Sum of moments
        Total    : (0.00807542 0.000727083 -0.573622)
        Pressure : (0.00807589 0.000704202 -0.573742)
        Viscous  : (-4.7177e-07 2.28812e-05 0.000119802)


Time = 8

smoothSolver:  Solving for Ux, Initial residual = 0.0332825, Final residual = 0.00311745, No Iterations 2
smoothSolver:  Solving for Uy, Initial residual = 0.131685, Final residual = 0.00446131, No Iterations 2
GAMG:  Solving for p, Initial residual = 0.125361, Final residual = 0.00933311, No Iterations 3
time step continuity errors : sum local = 0.0237984, global = 0.000295483, cumulative = 0.0285527
smoothSolver:  Solving for nuTilda, Initial residual = 0.0089116, Final residual = 0.000496971, No Iterations 3
ExecutionTime = 0.12 s  ClockTime = 0 s

forceCoeffs forceCoeffs execute:
    Coefficients
        Cd       : 0.0393059	(pressure: 0.0374153	viscous: 0.00189061)
        Cs       : 5.29117e-19	(pressure: 6.66285e-19	viscous: -1.37168e-19)
        Cl       : -0.476884	(pressure: -0.476913	viscous: 2.95303e-05)
        CmRoll       : 0.00238442	(pressure: 0.00238457	viscous: -1.47651e-07)
        CmPitch       : 0.154363	(pressure: 0.154356	viscous: 7.66146e-06)
        CmYaw       : 0.00019653	(pressure: 0.000187076	viscous: 9.45305e-06)
        Cd(f)    : 0.0220374
        Cd(r)    : 0.0172685
        Cs(f)    : 0.00019653
        Cs(r)    : -0.00019653
        Cl(f)    : -0.0840784
        Cl(r)    : -0.392805
forces forces write:
    Sum of forces
        Total    : (0.122831 -1.49026 -1.65349e-18)
        Pressure : (0.116923 -1.49035 -2.08214e-18)
        Viscous  : (0.00590815 9.22821e-05 4.28651e-19)
    Sum of moments
        Total    : (0.00745131 0.000614155 -0.482386)
        Pressure : (0.00745177 0.000584614 -0.482362)
        Viscous  : (-4.6141e-07 2.95408e-05 -2.39421e-05)


Time = 9

smoothSolver:  Solving for Ux, Initial residual = 0.0361452, Final residual = 0.00308702, No Iterations 2
smoothSolver:  Solving for Uy, Initial residual = 0.131272, Final residual = 0.0116903, No Iterations 1
GAMG:  Solving for p, Initial residual = 0.140255, Final residual = 0.0128864, No Iterations 3
time step continuity errors : sum local = 0.0276515, global = -0.000219631, cumulative = 0.0283331
smoothSolver:  Solving for nuTilda, Initial residual = 0.00915876, Final residual = 0.000535945, No Iterations 3
ExecutionTime = 0.12 s  ClockTime = 0 s

forceCoeffs forceCoeffs execute:
    Coefficients
        Cd       : 0.0328518	(pressure: 0.030651	viscous: 0.0022008)
        Cs       : 1.50811e-19	(pressure: 1.14848e-19	viscous: 3.59638e-20)
        Cl       : -0.36373	(pressure: -0.363733	viscous: 3.75473e-06)
        CmRoll       : 0.00181865	(pressure: 0.00181867	viscous: -1.87737e-08)
        CmPitch       : 0.086927	(pressure: 0.086877	viscous: 5.00627e-05)
        CmYaw       : 0.000164259	(pressure: 0.000153255	viscous: 1.1004e-05)
        Cd(f)    : 0.0182446
        Cd(r)    : 0.0146073
        Cs(f)    : 0.000164259
        Cs(r)    : -0.000164259
        Cl(f)    : -0.0949378
        Cl(r)    : -0.268792
forces forces write:
    Sum of forces
        Total    : (0.102662 -1.13666 -4.71286e-19)
        Pressure : (0.0957845 -1.13667 -3.58899e-19)
        Viscous  : (0.0068775 1.17335e-05 -1.12387e-19)
    Sum of moments
        Total    : (0.00568328 0.00051331 -0.271647)
        Pressure : (0.00568334 0.000478922 -0.27149)
        Viscous  : (-5.86677e-08 3.43875e-05 -0.000156446)


Time = 10

smoothSolver:  Solving for Ux, Initial residual = 0.0402956, Final residual = 0.0030796, No Iterations 2
smoothSolver:  Solving for Uy, Initial residual = 0.158613, Final residual = 0.0139091, No Iterations 1
GAMG:  Solving for p, Initial residual = 0.103489, Final residual = 0.00574974, No Iterations 4
time step continuity errors : sum local = 0.0139026, global = 0.000452409, cumulative = 0.0287855
smoothSolver:  Solving for nuTilda, Initial residual = 0.00998192, Final residual = 0.000608448, No Iterations 3
ExecutionTime = 0.12 s  ClockTime = 0 s

forceCoeffs forceCoeffs execute:
    Coefficients
        Cd       : 0.0283814	(pressure: 0.025927	viscous: 0.00245441)
        Cs       : -4.20389e-19	(pressure: -6.16574e-19	viscous: 1.96185e-19)
        Cl       : -0.202626	(pressure: -0.202681	viscous: 5.55028e-05)
        CmRoll       : 0.00101313	(pressure: 0.00101341	viscous: -2.77514e-07)
        CmPitch       : -0.00273199	(pressure: -0.00278008	viscous: 4.80896e-05)
        CmYaw       : 0.000141907	(pressure: 0.000129635	viscous: 1.22721e-05)
        Cd(f)    : 0.0152038
        Cd(r)    : 0.0131776
        Cs(f)    : 0.000141907
        Cs(r)    : -0.000141907
        Cl(f)    : -0.104045
        Cl(r)    : -0.0985808
forces forces write:
    Sum of forces
        Total    : (0.0886918 -0.633205 1.31372e-18)
        Pressure : (0.0810217 -0.633379 1.92679e-18)
        Viscous  : (0.00767003 0.000173446 -6.13077e-19)
    Sum of moments
        Total    : (0.00316603 0.000443459 0.00853748)
        Pressure : (0.00316689 0.000405109 0.00868776)
        Viscous  : (-8.67231e-07 3.83502e-05 -0.00015028)


Time = 11

smoothSolver:  Solving for Ux, Initial residual = 0.0452329, Final residual = 0.0031848, No Iterations 2
smoothSolver:  Solving for Uy, Initial residual = 0.18354, Final residual = 0.0175782, No Iterations 1
GAMG:  Solving for p, Initial residual = 0.0819687, Final residual = 0.00565299, No Iterations 4
time step continuity errors : sum local = 0.0145953, global = 0.000534712, cumulative = 0.0293202
smoothSolver:  Solving for nuTilda, Initial residual = 0.0126412, Final residual = 0.000754141, No Iterations 3
ExecutionTime = 0.12 s  ClockTime = 0 s

forceCoeffs forceCoeffs execute:
    Coefficients
        Cd       : 0.0253822	(pressure: 0.0225473	viscous: 0.00283482)
        Cs       : -9.19169e-19	(pressure: -1.30183e-18	viscous: 3.82664e-19)
        Cl       : -0.0634323	(pressure: -0.0635377	viscous: 0.000105414)
        CmRoll       : 0.000317161	(pressure: 0.000317688	viscous: -5.27072e-07)
        CmPitch       : -0.0724198	(pressure: -0.0724838	viscous: 6.40323e-05)
        CmYaw       : 0.000126911	(pressure: 0.000112737	viscous: 1.41741e-05)
        Cd(f)    : 0.0130082
        Cd(r)    : 0.0123739
        Cs(f)    : 0.000126911
        Cs(r)    : -0.000126911
        Cl(f)    : -0.104136
        Cl(r)    : 0.0407036
forces forces write:
    Sum of forces
        Total    : (0.0793192 -0.198226 2.8724e-18)
        Pressure : (0.0704604 -0.198555 4.06823e-18)
        Viscous  : (0.00885882 0.00032942 -1.19582e-18)
    Sum of moments
        Total    : (0.000991129 0.000396596 0.226312)
        Pressure : (0.000992776 0.000352302 0.226512)
        Viscous  : (-1.6471e-06 4.42941e-05 -0.000200101)


Time = 12

smoothSolver:  Solving for Ux, Initial residual = 0.0494506, Final residual = 0.00374603, No Iterations 2
smoothSolver:  Solving for Uy, Initial residual = 0.200208, Final residual = 0.0108044, No Iterations 2
GAMG:  Solving for p, Initial residual = 0.0908603, Final residual = 0.00544589, No Iterations 4
time step continuity errors : sum local = 0.0146686, global = -0.00106034, cumulative = 0.0282599
smoothSolver:  Solving for nuTilda, Initial residual = 0.0135641, Final residual = 0.000798391, No Iterations 3
ExecutionTime = 0.13 s  ClockTime = 0 s

forceCoeffs forceCoeffs execute:
    Coefficients
        Cd       : 0.0231551	(pressure: 0.019935	viscous: 0.00322009)
        Cs       : -1.57702e-18	(pressure: -1.86647e-18	viscous: 2.89451e-19)
        Cl       : 0.042332	(pressure: 0.0421556	viscous: 0.000176373)
        CmRoll       : -0.00021166	(pressure: -0.000210778	viscous: -8.81863e-07)
        CmPitch       : -0.116314	(pressure: -0.116377	viscous: 6.24068e-05)
        CmYaw       : 0.000115775	(pressure: 9.96749e-05	viscous: 1.61004e-05)
        Cd(f)    : 0.0113659
        Cd(r)    : 0.0117892
        Cs(f)    : 0.000115775
        Cs(r)    : -0.000115775
        Cl(f)    : -0.0951483
        Cl(r)    : 0.13748
forces forces write:
    Sum of forces
        Total    : (0.0723596 0.132287 4.92818e-18)
        Pressure : (0.0622968 0.131736 5.83272e-18)
        Viscous  : (0.0100628 0.000551165 -9.04535e-19)
    Sum of moments
        Total    : (-0.000661437 0.000361798 0.363482)
        Pressure : (-0.000658682 0.000311484 0.363677)
        Viscous  : (-2.75582e-06 5.03138e-05 -0.000195021)


Time = 13

smoothSolver:  Solving for Ux, Initial residual = 0.0542353, Final residual = 0.00436489, No Iterations 2
smoothSolver:  Solving for Uy, Initial residual = 0.229924, Final residual = 0.0130219, No Iterations 2
GAMG:  Solving for p, Initial residual = 0.0882434, Final residual = 0.00599239, No Iterations 4
time step continuity errors : sum local = 0.0156441, global = -0.00247707, cumulative = 0.0257828
smoothSolver:  Solving for nuTilda, Initial residual = 0.0145036, Final residual = 0.000978018, No Iterations 3
ExecutionTime = 0.13 s  ClockTime = 0 s

forceCoeffs forceCoeffs execute:
    Coefficients
        Cd       : 0.0209831	(pressure: 0.0173238	viscous: 0.00365921)
        Cs       : -2.0465e-18	(pressure: -2.17482e-18	viscous: 1.28317e-19)
        Cl       : 0.0941513	(pressure: 0.0939454	viscous: 0.000205857)
        CmRoll       : -0.000470756	(pressure: -0.000469727	viscous: -1.02929e-06)
        CmPitch       : -0.124922	(pressure: -0.124989	viscous: 6.76333e-05)
        CmYaw       : 0.000104915	(pressure: 8.66192e-05	viscous: 1.82961e-05)
        Cd(f)    : 0.0100208
        Cd(r)    : 0.0109623
        Cs(f)    : 0.000104915
        Cs(r)    : -0.000104915
        Cl(f)    : -0.077846
        Cl(r)    : 0.171997
forces forces write:
    Sum of forces
        Total    : (0.0655721 0.294223 6.39532e-18)
        Pressure : (0.054137 0.293579 6.79631e-18)
        Viscous  : (0.011435 0.000643304 -4.00991e-19)
    Sum of moments
        Total    : (-0.00147111 0.00032786 0.39038)
        Pressure : (-0.0014679 0.000270685 0.390591)
        Viscous  : (-3.21652e-06 5.71752e-05 -0.000211354)


Time = 14

smoothSolver:  Solving for Ux, Initial residual = 0.054848, Final residual = 0.00527776, No Iterations 2
smoothSolver:  Solving for Uy, Initial residual = 0.269016, Final residual = 0.0147717, No Iterations 2
GAMG:  Solving for p, Initial residual = 0.0877232, Final residual = 0.00589645, No Iterations 4
time step continuity errors : sum local = 0.0145006, global = -0.00339259, cumulative = 0.0223902
smoothSolver:  Solving for nuTilda, Initial residual = 0.0136761, Final residual = 0.000999666, No Iterations 3
ExecutionTime = 0.13 s  ClockTime = 0 s

forceCoeffs forceCoeffs execute:
    Coefficients
        Cd       : 0.0190455	(pressure: 0.0147773	viscous: 0.00426822)
        Cs       : -2.31004e-18	(pressure: -2.31537e-18	viscous: 5.32465e-21)
        Cl       : 0.106256	(pressure: 0.106047	viscous: 0.000209019)
        CmRoll       : -0.000531278	(pressure: -0.000530233	viscous: -1.0451e-06)
        CmPitch       : -0.110468	(pressure: -0.110546	viscous: 7.75611e-05)
        CmYaw       : 9.52275e-05	(pressure: 7.38864e-05	viscous: 2.13411e-05)
        Cd(f)    : 0.00899147
        Cd(r)    : 0.010054
        Cs(f)    : 9.52275e-05
        Cs(r)    : -9.52275e-05
        Cl(f)    : -0.0573404
        Cl(r)    : 0.163596
forces forces write:
    Sum of forces
        Total    : (0.0595172 0.332049 7.21889e-18)
        Pressure : (0.046179 0.331396 7.23553e-18)
        Viscous  : (0.0133382 0.000653185 -1.66395e-20)
    Sum of moments
        Total    : (-0.00166025 0.000297586 0.345213)
        Pressure : (-0.00165698 0.000230895 0.345456)
        Viscous  : (-3.26593e-06 6.6691e-05 -0.000242378)


Time = 15

smoothSolver:  Solving for Ux, Initial residual = 0.053728, Final residual = 0.00289266, No Iterations 3
smoothSolver:  Solving for Uy, Initial residual = 0.307847, Final residual = 0.0164155, No Iterations 2
GAMG:  Solving for p, Initial residual = 0.0846452, Final residual = 0.00573858, No Iterations 4
time step continuity errors : sum local = 0.0127563, global = -0.00284512, cumulative = 0.0195451
smoothSolver:  Solving for nuTilda, Initial residual = 0.0122854, Final residual = 0.00108495, No Iterations 3
bounding nuTilda, min: -1.96877e-05 max: 0.0474967 average: 0.00553979
ExecutionTime = 0.13 s  ClockTime = 0 s

forceCoeffs forceCoeffs execute:
    Coefficients
        Cd       : 0.017529	(pressure: 0.0126737	viscous: 0.00485538)
        Cs       : -2.34793e-18	(pressure: -2.38707e-18	viscous: 3.91334e-20)
        Cl       : 0.103225	(pressure: 0.103042	viscous: 0.000183044)
        CmRoll       : -0.000516126	(pressure: -0.000515211	viscous: -9.15222e-07)
        CmPitch       : -0.0901063	(pressure: -0.0901916	viscous: 8.52755e-05)
        CmYaw       : 8.76452e-05	(pressure: 6.33683e-05	viscous: 2.42769e-05)
        Cd(f)    : 0.00824839
        Cd(r)    : 0.00928065
        Cs(f)    : 8.76452e-05
        Cs(r)    : -8.76452e-05
        Cl(f)    : -0.0384937
        Cl(r)    : 0.141719
forces forces write:
    Sum of forces
        Total    : (0.0547782 0.322579 7.33729e-18)
        Pressure : (0.0396052 0.322007 7.45958e-18)
        Viscous  : (0.0151731 0.000572013 -1.22292e-19)
    Sum of moments
        Total    : (-0.00161289 0.000273891 0.281582)
        Pressure : (-0.00161003 0.000198026 0.281849)
        Viscous  : (-2.86007e-06 7.58653e-05 -0.000266486)


Time = 16

smoothSolver:  Solving for Ux, Initial residual = 0.051728, Final residual = 0.00271486, No Iterations 3
smoothSolver:  Solving for Uy, Initial residual = 0.307728, Final residual = 0.0179348, No Iterations 2
GAMG:  Solving for p, Initial residual = 0.0763803, Final residual = 0.00433978, No Iterations 4
time step continuity errors : sum local = 0.00908038, global = -0.00123978, cumulative = 0.0183053
smoothSolver:  Solving for nuTilda, Initial residual = 0.0109809, Final residual = 0.00102462, No Iterations 3
ExecutionTime = 0.14 s  ClockTime = 0 s

forceCoeffs forceCoeffs execute:
    Coefficients
        Cd       : 0.016985	(pressure: 0.0113883	viscous: 0.00559672)
        Cs       : -2.41924e-18	(pressure: -2.47514e-18	viscous: 5.59011e-20)
        Cl       : 0.109581	(pressure: 0.109432	viscous: 0.000148927)
        CmRoll       : -0.000547906	(pressure: -0.000547162	viscous: -7.44633e-07)
        CmPitch       : -0.079636	(pressure: -0.07973	viscous: 9.4022e-05)
        CmYaw       : 8.4925e-05	(pressure: 5.69415e-05	viscous: 2.79836e-05)
        Cd(f)    : 0.0079446
        Cd(r)    : 0.00904041
        Cs(f)    : 8.4925e-05
        Cs(r)    : -8.4925e-05
        Cl(f)    : -0.0248453
        Cl(r)    : 0.134427
forces forces write:
    Sum of forces
        Total    : (0.0530782 0.342441 7.56012e-18)
        Pressure : (0.0355884 0.341976 7.73481e-18)
        Viscous  : (0.0174897 0.000465396 -1.74691e-19)
    Sum of moments
        Total    : (-0.00171221 0.000265391 0.248862)
        Pressure : (-0.00170988 0.000177942 0.249156)
        Viscous  : (-2.32698e-06 8.74487e-05 -0.000293819)


Time = 17

smoothSolver:  Solving for Ux, Initial residual = 0.0481841, Final residual = 0.00253358, No Iterations 3
smoothSolver:  Solving for Uy, Initial residual = 0.284979, Final residual = 0.0197813, No Iterations 2
GAMG:  Solving for p, Initial residual = 0.0780725, Final residual = 0.00418981, No Iterations 4
time step continuity errors : sum local = 0.00808945, global = -0.000216337, cumulative = 0.018089
smoothSolver:  Solving for nuTilda, Initial residual = 0.00891578, Final residual = 0.000885927, No Iterations 3
ExecutionTime = 0.14 s  ClockTime = 0 s

forceCoeffs forceCoeffs execute:
    Coefficients
        Cd       : 0.0168973	(pressure: 0.0106657	viscous: 0.00623164)
        Cs       : -2.42131e-18	(pressure: -2.5666e-18	viscous: 1.4529e-19)
        Cl       : 0.1281	(pressure: 0.12798	viscous: 0.000119806)
        CmRoll       : -0.000640499	(pressure: -0.0006399	viscous: -5.99028e-07)
        CmPitch       : -0.0803157	(pressure: -0.080415	viscous: 9.93356e-05)
        CmYaw       : 8.44866e-05	(pressure: 5.33283e-05	viscous: 3.11582e-05)
        Cd(f)    : 0.00780816
        Cd(r)    : 0.00908915
        Cs(f)    : 8.44866e-05
        Cs(r)    : -8.44866e-05
        Cl(f)    : -0.0162658
        Cl(r)    : 0.144366
forces forces write:
    Sum of forces
        Total    : (0.0528041 0.400312 7.56658e-18)
        Pressure : (0.0333302 0.399937 8.02061e-18)
        Viscous  : (0.0194739 0.000374393 -4.54032e-19)
    Sum of moments
        Total    : (-0.00200156 0.00026402 0.250987)
        Pressure : (-0.00199969 0.000166651 0.251297)
        Viscous  : (-1.87196e-06 9.73695e-05 -0.000310424)


Time = 18

smoothSolver:  Solving for Ux, Initial residual = 0.0467005, Final residual = 0.00451927, No Iterations 2
smoothSolver:  Solving for Uy, Initial residual = 0.265901, Final residual = 0.0198382, No Iterations 2
GAMG:  Solving for p, Initial residual = 0.0828435, Final residual = 0.00802198, No Iterations 3
time step continuity errors : sum local = 0.0145637, global = -0.000197268, cumulative = 0.0178917
smoothSolver:  Solving for nuTilda, Initial residual = 0.00784791, Final residual = 0.000499406, No Iterations 4
ExecutionTime = 0.14 s  ClockTime = 0 s

forceCoeffs forceCoeffs execute:
    Coefficients
        Cd       : 0.0170707	(pressure: 0.0101978	viscous: 0.00687292)
        Cs       : -2.46836e-18	(pressure: -2.64323e-18	viscous: 1.74864e-19)
        Cl       : 0.153203	(pressure: 0.153102	viscous: 0.000100482)
        CmRoll       : -0.000766014	(pressure: -0.000765512	viscous: -5.0241e-07)
        CmPitch       : -0.0880547	(pressure: -0.0881595	viscous: 0.000104746)
        CmYaw       : 8.53536e-05	(pressure: 5.0989e-05	viscous: 3.43646e-05)
        Cd(f)    : 0.00776934
        Cd(r)    : 0.00930137
        Cs(f)    : 8.53536e-05
        Cs(r)    : -8.53536e-05
        Cl(f)    : -0.0114533
        Cl(r)    : 0.164656
forces forces write:
    Sum of forces
        Total    : (0.053346 0.478759 7.71363e-18)
        Pressure : (0.0318681 0.478445 8.26008e-18)
        Viscous  : (0.0214779 0.000314006 -5.46451e-19)
    Sum of moments
        Total    : (-0.00239379 0.00026673 0.275171)
        Pressure : (-0.00239222 0.000159341 0.275498)
        Viscous  : (-1.57003e-06 0.000107389 -0.000327332)


Time = 19

smoothSolver:  Solving for Ux, Initial residual = 0.0441936, Final residual = 0.00430298, No Iterations 2
smoothSolver:  Solving for Uy, Initial residual = 0.267036, Final residual = 0.0196448, No Iterations 2
GAMG:  Solving for p, Initial residual = 0.0838198, Final residual = 0.00763, No Iterations 3
time step continuity errors : sum local = 0.013116, global = 0.000135919, cumulative = 0.0180276
smoothSolver:  Solving for nuTilda, Initial residual = 0.00635299, Final residual = 0.000414812, No Iterations 4
bounding nuTilda, min: -4.87064e-05 max: 0.0516783 average: 0.00662537
ExecutionTime = 0.14 s  ClockTime = 0 s

forceCoeffs forceCoeffs execute:
    Coefficients
        Cd       : 0.016853	(pressure: 0.00969756	viscous: 0.00715542)
        Cs       : -2.53626e-18	(pressure: -2.71672e-18	viscous: 1.80459e-19)
        Cl       : 0.179074	(pressure: 0.178991	viscous: 8.25941e-05)
        CmRoll       : -0.000895368	(pressure: -0.000894955	viscous: -4.1297e-07)
        CmPitch       : -0.0972442	(pressure: -0.0973513	viscous: 0.000107164)
        CmYaw       : 8.42649e-05	(pressure: 4.84878e-05	viscous: 3.57771e-05)
        Cd(f)    : 0.00753112
        Cd(r)    : 0.00932186
        Cs(f)    : 8.42649e-05
        Cs(r)    : -8.42649e-05
        Cl(f)    : -0.00770736
        Cl(r)    : 0.186781
forces forces write:
    Sum of forces
        Total    : (0.0526656 0.559605 7.92582e-18)
        Pressure : (0.0303049 0.559347 8.48976e-18)
        Viscous  : (0.0223607 0.000258106 -5.63934e-19)
    Sum of moments
        Total    : (-0.00279803 0.000263328 0.303888)
        Pressure : (-0.00279673 0.000151524 0.304223)
        Viscous  : (-1.29053e-06 0.000111803 -0.000334887)


Time = 20

smoothSolver:  Solving for Ux, Initial residual = 0.0406819, Final residual = 0.00385836, No Iterations 2
smoothSolver:  Solving for Uy, Initial residual = 0.247337, Final residual = 0.0175959, No Iterations 2
GAMG:  Solving for p, Initial residual = 0.0770978, Final residual = 0.00686845, No Iterations 3
time step continuity errors : sum local = 0.011562, global = 0.000242535, cumulative = 0.0182702
smoothSolver:  Solving for nuTilda, Initial residual = 0.00551574, Final residual = 0.000351387, No Iterations 4
bounding nuTilda, min: -1.19425e-05 max: 0.0506674 average: 0.00677774
ExecutionTime = 0.16 s  ClockTime = 0 s

forceCoeffs forceCoeffs execute:
    Coefficients
        Cd       : 0.0166489	(pressure: 0.00916469	viscous: 0.00748426)
        Cs       : -2.57808e-18	(pressure: -2.7725e-18	viscous: 1.94422e-19)
        Cl       : 0.198242	(pressure: 0.198154	viscous: 8.75039e-05)
        CmRoll       : -0.000991208	(pressure: -0.00099077	viscous: -4.37519e-07)
        CmPitch       : -0.103225	(pressure: -0.103327	viscous: 0.000101333)
        CmYaw       : 8.32447e-05	(pressure: 4.58234e-05	viscous: 3.74213e-05)
        Cd(f)    : 0.00733326
        Cd(r)    : 0.00931568
        Cs(f)    : 8.32447e-05
        Cs(r)    : -8.32447e-05
        Cl(f)    : -0.00410441
        Cl(r)    : 0.202346
forces forces write:
    Sum of forces
        Total    : (0.0520279 0.619505 8.05651e-18)
        Pressure : (0.0286396 0.619231 8.66407e-18)
        Viscous  : (0.0233883 0.00027345 -6.07568e-19)
    Sum of moments
        Total    : (-0.00309752 0.00026014 0.322579)
        Pressure : (-0.00309616 0.000143198 0.322895)
        Viscous  : (-1.36725e-06 0.000116941 -0.000316665)


Time = 21

smoothSolver:  Solving for Ux, Initial residual = 0.036919, Final residual = 0.00359406, No Iterations 2
smoothSolver:  Solving for Uy, Initial residual = 0.230714, Final residual = 0.0158913, No Iterations 2
GAMG:  Solving for p, Initial residual = 0.0680763, Final residual = 0.00628425, No Iterations 3
time step continuity errors : sum local = 0.0104984, global = 0.000177227, cumulative = 0.0184474
smoothSolver:  Solving for nuTilda, Initial residual = 0.00492359, Final residual = 0.000308174, No Iterations 4
ExecutionTime = 0.16 s  ClockTime = 0 s

forceCoeffs forceCoeffs execute:
    Coefficients
        Cd       : 0.0161702	(pressure: 0.0085712	viscous: 0.00759904)
        Cs       : -2.62423e-18	(pressure: -2.80172e-18	viscous: 1.77494e-19)
        Cl       : 0.207125	(pressure: 0.207042	viscous: 8.33506e-05)
        CmRoll       : -0.00103563	(pressure: -0.00103521	viscous: -4.16753e-07)
        CmPitch       : -0.103723	(pressure: -0.103834	viscous: 0.000110649)
        CmYaw       : 8.08512e-05	(pressure: 4.2856e-05	viscous: 3.79952e-05)
        Cd(f)    : 0.00704949
        Cd(r)    : 0.00912075
        Cs(f)    : 8.08512e-05
        Cs(r)    : -8.08512e-05
        Cl(f)    : -0.000160788
        Cl(r)    : 0.207286
forces forces write:
    Sum of forces
        Total    : (0.050532 0.647267 8.20072e-18)
        Pressure : (0.026785 0.647006 8.75538e-18)
        Viscous  : (0.023747 0.000260471 -5.54669e-19)
    Sum of moments
        Total    : (-0.00323633 0.00025266 0.324136)
        Pressure : (-0.00323503 0.000133925 0.324482)
        Viscous  : (-1.30235e-06 0.000118735 -0.000345778)


Time = 22

smoothSolver:  Solving for Ux, Initial residual = 0.0327326, Final residual = 0.00189595, No Iterations 3
smoothSolver:  Solving for Uy, Initial residual = 0.220614, Final residual = 0.0166489, No Iterations 2
GAMG:  Solving for p, Initial residual = 0.0633867, Final residual = 0.00568089, No Iterations 3
time step continuity errors : sum local = 0.00935439, global = 4.9528e-05, cumulative = 0.0184969
smoothSolver:  Solving for nuTilda, Initial residual = 0.0045438, Final residual = 0.000284326, No Iterations 4
ExecutionTime = 0.16 s  ClockTime = 0 s

forceCoeffs forceCoeffs execute:
    Coefficients
        Cd       : 0.0157846	(pressure: 0.00792569	viscous: 0.00785886)
        Cs       : -2.64104e-18	(pressure: -2.81423e-18	viscous: 1.73188e-19)
        Cl       : 0.207565	(pressure: 0.207483	viscous: 8.1894e-05)
        CmRoll       : -0.00103782	(pressure: -0.00103741	viscous: -4.0947e-07)
        CmPitch       : -0.099798	(pressure: -0.0999154	viscous: 0.000117408)
        CmYaw       : 7.89228e-05	(pressure: 3.96285e-05	viscous: 3.92943e-05)
        Cd(f)    : 0.00685445
        Cd(r)    : 0.0089301
        Cs(f)    : 7.89228e-05
        Cs(r)    : -7.89228e-05
        Cl(f)    : 0.00398441
        Cl(r)    : 0.20358
forces forces write:
    Sum of forces
        Total    : (0.0493267 0.64864 8.25326e-18)
        Pressure : (0.0247678 0.648384 8.79447e-18)
        Viscous  : (0.0245589 0.000255919 -5.41212e-19)
    Sum of moments
        Total    : (-0.0032432 0.000246634 0.311869)
        Pressure : (-0.00324192 0.000123839 0.312236)
        Viscous  : (-1.27959e-06 0.000122795 -0.000366901)


Time = 23

smoothSolver:  Solving for Ux, Initial residual = 0.0294238, Final residual = 0.00194945, No Iterations 3
smoothSolver:  Solving for Uy, Initial residual = 0.210571, Final residual = 0.0166158, No Iterations 2
GAMG:  Solving for p, Initial residual = 0.060523, Final residual = 0.00511167, No Iterations 3
time step continuity errors : sum local = 0.0082745, global = -9.56257e-05, cumulative = 0.0184013
smoothSolver:  Solving for nuTilda, Initial residual = 0.00414311, Final residual = 0.000274307, No Iterations 4
ExecutionTime = 0.16 s  ClockTime = 0 s

forceCoeffs forceCoeffs execute:
    Coefficients
        Cd       : 0.0151398	(pressure: 0.00720329	viscous: 0.00793647)
        Cs       : -2.64119e-18	(pressure: -2.80532e-18	viscous: 1.64138e-19)
        Cl       : 0.203397	(pressure: 0.203321	viscous: 7.5218e-05)
        CmRoll       : -0.00101698	(pressure: -0.00101661	viscous: -3.7609e-07)
        CmPitch       : -0.0939082	(pressure: -0.0940391	viscous: 0.00013086)
        CmYaw       : 7.56988e-05	(pressure: 3.60165e-05	viscous: 3.96823e-05)
        Cd(f)    : 0.0065529
        Cd(r)    : 0.00858686
        Cs(f)    : 7.56988e-05
        Cs(r)    : -7.56988e-05
        Cl(f)    : 0.0077901
        Cl(r)    : 0.195607
forces forces write:
    Sum of forces
        Total    : (0.0473118 0.635614 8.25371e-18)
        Pressure : (0.0225103 0.635379 8.76664e-18)
        Viscous  : (0.0248015 0.000235056 -5.12933e-19)
    Sum of moments
        Total    : (-0.00317807 0.000236559 0.293463)
        Pressure : (-0.0031769 0.000112551 0.293872)
        Viscous  : (-1.17528e-06 0.000124007 -0.000408938)


Time = 24

smoothSolver:  Solving for Ux, Initial residual = 0.0270557, Final residual = 0.00202103, No Iterations 3
smoothSolver:  Solving for Uy, Initial residual = 0.200022, Final residual = 0.0168091, No Iterations 2
GAMG:  Solving for p, Initial residual = 0.05965, Final residual = 0.00490389, No Iterations 3
time step continuity errors : sum local = 0.00769903, global = -0.000147999, cumulative = 0.0182533
smoothSolver:  Solving for nuTilda, Initial residual = 0.00394806, Final residual = 0.000256865, No Iterations 4
bounding nuTilda, min: -0.000239939 max: 0.0484839 average: 0.0072228
ExecutionTime = 0.17 s  ClockTime = 0 s

forceCoeffs forceCoeffs execute:
    Coefficients
        Cd       : 0.0145232	(pressure: 0.00645226	viscous: 0.00807092)
        Cs       : -2.6187e-18	(pressure: -2.7759e-18	viscous: 1.57202e-19)
        Cl       : 0.19757	(pressure: 0.197488	viscous: 8.18476e-05)
        CmRoll       : -0.000987848	(pressure: -0.000987439	viscous: -4.09238e-07)
        CmPitch       : -0.0880027	(pressure: -0.0881335	viscous: 0.000130729)
        CmYaw       : 7.26159e-05	(pressure: 3.22613e-05	viscous: 4.03546e-05)
        Cd(f)    : 0.00627374
        Cd(r)    : 0.00824944
        Cs(f)    : 7.26159e-05
        Cs(r)    : -7.26159e-05
        Cl(f)    : 0.0107821
        Cl(r)    : 0.186788
forces forces write:
    Sum of forces
        Total    : (0.0453849 0.617405 8.18342e-18)
        Pressure : (0.0201633 0.617149 8.67468e-18)
        Viscous  : (0.0252216 0.000255774 -4.91257e-19)
    Sum of moments
        Total    : (-0.00308702 0.000226925 0.275009)
        Pressure : (-0.00308575 0.000100817 0.275417)
        Viscous  : (-1.27887e-06 0.000126108 -0.000408529)


Time = 25

smoothSolver:  Solving for Ux, Initial residual = 0.0254467, Final residual = 0.0020408, No Iterations 3
smoothSolver:  Solving for Uy, Initial residual = 0.18649, Final residual = 0.0161639, No Iterations 2
GAMG:  Solving for p, Initial residual = 0.0580637, Final residual = 0.0047046, No Iterations 3
time step continuity errors : sum local = 0.00709195, global = -0.000173096, cumulative = 0.0180802
smoothSolver:  Solving for nuTilda, Initial residual = 0.00402586, Final residual = 0.000264711, No Iterations 4
ExecutionTime = 0.17 s  ClockTime = 0 s

forceCoeffs forceCoeffs execute:
    Coefficients
        Cd       : 0.0138513	(pressure: 0.00573304	viscous: 0.0081183)
        Cs       : -2.57262e-18	(pressure: -2.72913e-18	viscous: 1.56508e-19)
        Cl       : 0.192452	(pressure: 0.192362	viscous: 8.96686e-05)
        CmRoll       : -0.000962259	(pressure: -0.000961811	viscous: -4.48343e-07)
        CmPitch       : -0.0835511	(pressure: -0.0836841	viscous: 0.000132986)
        CmYaw       : 6.92567e-05	(pressure: 2.86652e-05	viscous: 4.05915e-05)
        Cd(f)    : 0.00596341
        Cd(r)    : 0.00788793
        Cs(f)    : 6.92567e-05
        Cs(r)    : -6.92567e-05
        Cl(f)    : 0.0126748
        Cl(r)    : 0.179777
forces forces write:
    Sum of forces
        Total    : (0.0432854 0.601412 8.03944e-18)
        Pressure : (0.0179157 0.601132 8.52853e-18)
        Viscous  : (0.0253697 0.000280214 -4.89088e-19)
    Sum of moments
        Total    : (-0.00300706 0.000216427 0.261097)
        Pressure : (-0.00300566 8.95787e-05 0.261513)
        Viscous  : (-1.40107e-06 0.000126848 -0.000415581)


Time = 26

smoothSolver:  Solving for Ux, Initial residual = 0.0241401, Final residual = 0.00199584, No Iterations 3
smoothSolver:  Solving for Uy, Initial residual = 0.176097, Final residual = 0.0146364, No Iterations 2
GAMG:  Solving for p, Initial residual = 0.0570602, Final residual = 0.00453619, No Iterations 3
time step continuity errors : sum local = 0.0065607, global = -0.000185817, cumulative = 0.0178944
smoothSolver:  Solving for nuTilda, Initial residual = 0.0040205, Final residual = 0.000267083, No Iterations 4
bounding nuTilda, min: -0.000193476 max: 0.0483763 average: 0.00735704
ExecutionTime = 0.17 s  ClockTime = 0 s

forceCoeffs forceCoeffs execute:
    Coefficients
        Cd       : 0.0132941	(pressure: 0.00507097	viscous: 0.0082231)
        Cs       : -2.51941e-18	(pressure: -2.67297e-18	viscous: 1.53561e-19)
        Cl       : 0.188352	(pressure: 0.188251	viscous: 0.00010086)
        CmRoll       : -0.00094176	(pressure: -0.000941256	viscous: -5.04302e-07)
        CmPitch       : -0.0805259	(pressure: -0.0806565	viscous: 0.000130547)
        CmYaw       : 6.64703e-05	(pressure: 2.53548e-05	viscous: 4.11155e-05)
        Cd(f)    : 0.00570527
        Cd(r)    : 0.00758879
        Cs(f)    : 6.64703e-05
        Cs(r)    : -6.64703e-05
        Cl(f)    : 0.0136501
        Cl(r)    : 0.174702
forces forces write:
    Sum of forces
        Total    : (0.041544 0.5886 7.87316e-18)
        Pressure : (0.0158468 0.588285 8.35304e-18)
        Viscous  : (0.0256972 0.000315189 -4.79879e-19)
    Sum of moments
        Total    : (-0.002943 0.00020772 0.251644)
        Pressure : (-0.00294142 7.92338e-05 0.252051)
        Viscous  : (-1.57595e-06 0.000128486 -0.00040796)


Time = 27

smoothSolver:  Solving for Ux, Initial residual = 0.0231453, Final residual = 0.00190678, No Iterations 3
smoothSolver:  Solving for Uy, Initial residual = 0.159787, Final residual = 0.0129119, No Iterations 2
GAMG:  Solving for p, Initial residual = 0.0532175, Final residual = 0.00427521, No Iterations 3
time step continuity errors : sum local = 0.00600078, global = -0.000212933, cumulative = 0.0176815
smoothSolver:  Solving for nuTilda, Initial residual = 0.00417397, Final residual = 0.000267616, No Iterations 4
bounding nuTilda, min: -8.11151e-05 max: 0.0480734 average: 0.00740769
ExecutionTime = 0.17 s  ClockTime = 0 s

forceCoeffs forceCoeffs execute:
    Coefficients
        Cd       : 0.0127312	(pressure: 0.00447398	viscous: 0.00825726)
        Cs       : -2.45816e-18	(pressure: -2.61063e-18	viscous: 1.52473e-19)
        Cl       : 0.184822	(pressure: 0.184715	viscous: 0.000106274)
        CmRoll       : -0.000924108	(pressure: -0.000923577	viscous: -5.31371e-07)
        CmPitch       : -0.0784436	(pressure: -0.0785776	viscous: 0.000134097)
        CmYaw       : 6.36562e-05	(pressure: 2.23699e-05	viscous: 4.12863e-05)
        Cd(f)    : 0.00544151
        Cd(r)    : 0.00728973
        Cs(f)    : 6.36562e-05
        Cs(r)    : -6.36562e-05
        Cl(f)    : 0.0139673
        Cl(r)    : 0.170854
forces forces write:
    Sum of forces
        Total    : (0.0397851 0.577568 7.68175e-18)
        Pressure : (0.0139812 0.577236 8.15823e-18)
        Viscous  : (0.0258039 0.000332107 -4.76479e-19)
    Sum of moments
        Total    : (-0.00288784 0.000198926 0.245136)
        Pressure : (-0.00288618 6.9906e-05 0.245555)
        Viscous  : (-1.66053e-06 0.00012902 -0.000419053)


Time = 28

smoothSolver:  Solving for Ux, Initial residual = 0.0218909, Final residual = 0.00181724, No Iterations 3
smoothSolver:  Solving for Uy, Initial residual = 0.153436, Final residual = 0.0110049, No Iterations 2
GAMG:  Solving for p, Initial residual = 0.0497755, Final residual = 0.00400196, No Iterations 3
time step continuity errors : sum local = 0.00545701, global = -0.000208866, cumulative = 0.0174726
smoothSolver:  Solving for nuTilda, Initial residual = 0.00425284, Final residual = 0.00026819, No Iterations 4
ExecutionTime = 0.19 s  ClockTime = 0 s

forceCoeffs forceCoeffs execute:
    Coefficients
        Cd       : 0.0122695	(pressure: 0.00395135	viscous: 0.0083181)
        Cs       : -2.39536e-18	(pressure: -2.54439e-18	viscous: 1.49032e-19)
        Cl       : 0.180934	(pressure: 0.180826	viscous: 0.00010774)
        CmRoll       : -0.000904671	(pressure: -0.000904132	viscous: -5.38699e-07)
        CmPitch       : -0.0765781	(pressure: -0.0767157	viscous: 0.000137586)
        CmYaw       : 6.13473e-05	(pressure: 1.97568e-05	viscous: 4.15905e-05)
        Cd(f)    : 0.00523006
        Cd(r)    : 0.0070394
        Cs(f)    : 6.13473e-05
        Cs(r)    : -6.13473e-05
        Cl(f)    : 0.013889
        Cl(r)    : 0.167045
forces forces write:
    Sum of forces
        Total    : (0.038342 0.565419 7.48549e-18)
        Pressure : (0.012348 0.565083 7.95121e-18)
        Viscous  : (0.0259941 0.000336687 -4.65726e-19)
    Sum of moments
        Total    : (-0.0028271 0.00019171 0.239307)
        Pressure : (-0.00282541 6.17399e-05 0.239737)
        Viscous  : (-1.68343e-06 0.00012997 -0.000429956)


Time = 29

smoothSolver:  Solving for Ux, Initial residual = 0.020606, Final residual = 0.00174431, No Iterations 3
smoothSolver:  Solving for Uy, Initial residual = 0.13875, Final residual = 0.0102021, No Iterations 2
GAMG:  Solving for p, Initial residual = 0.0447049, Final residual = 0.00374663, No Iterations 3
time step continuity errors : sum local = 0.00502704, global = -0.000228262, cumulative = 0.0172443
smoothSolver:  Solving for nuTilda, Initial residual = 0.00409702, Final residual = 0.00026228, No Iterations 4
ExecutionTime = 0.19 s  ClockTime = 0 s

forceCoeffs forceCoeffs execute:
    Coefficients
        Cd       : 0.0118456	(pressure: 0.00351488	viscous: 0.00833072)
        Cs       : -2.32961e-18	(pressure: -2.47801e-18	viscous: 1.48402e-19)
        Cl       : 0.176411	(pressure: 0.176305	viscous: 0.00010578)
        CmRoll       : -0.000882056	(pressure: -0.000881527	viscous: -5.28899e-07)
        CmPitch       : -0.0746458	(pressure: -0.0747902	viscous: 0.000144393)
        CmYaw       : 5.9228e-05	(pressure: 1.75744e-05	viscous: 4.16536e-05)
        Cd(f)    : 0.00504075
        Cd(r)    : 0.00680486
        Cs(f)    : 5.9228e-05
        Cs(r)    : -5.9228e-05
        Cl(f)    : 0.0135598
        Cl(r)    : 0.162851
forces forces write:
    Sum of forces
        Total    : (0.0370175 0.551285 7.28003e-18)
        Pressure : (0.010984 0.550954 7.74378e-18)
        Viscous  : (0.0260335 0.000330562 -4.63755e-19)
    Sum of moments
        Total    : (-0.00275642 0.000185088 0.233268)
        Pressure : (-0.00275477 5.492e-05 0.233719)
        Viscous  : (-1.65281e-06 0.000130167 -0.000451227)


Time = 30

smoothSolver:  Solving for Ux, Initial residual = 0.0188808, Final residual = 0.00169929, No Iterations 3
smoothSolver:  Solving for Uy, Initial residual = 0.130923, Final residual = 0.00933459, No Iterations 2
GAMG:  Solving for p, Initial residual = 0.0414762, Final residual = 0.00358459, No Iterations 3
time step continuity errors : sum local = 0.00476801, global = -0.000179145, cumulative = 0.0170652
smoothSolver:  Solving for nuTilda, Initial residual = 0.00399396, Final residual = 0.000265026, No Iterations 4
ExecutionTime = 0.19 s  ClockTime = 0 s

forceCoeffs forceCoeffs execute:
    Coefficients
        Cd       : 0.0115448	(pressure: 0.00317686	viscous: 0.00836792)
        Cs       : -2.26613e-18	(pressure: -2.4136e-18	viscous: 1.47469e-19)
        Cl       : 0.17149	(pressure: 0.171385	viscous: 0.000105288)
        CmRoll       : -0.000857451	(pressure: -0.000856925	viscous: -5.2644e-07)
        CmPitch       : -0.0727402	(pressure: -0.0728888	viscous: 0.000148588)
        CmYaw       : 5.77239e-05	(pressure: 1.58843e-05	viscous: 4.18396e-05)
        Cd(f)    : 0.00491494
        Cd(r)    : 0.00662984
        Cs(f)    : 5.77239e-05
        Cs(r)    : -5.77239e-05
        Cl(f)    : 0.013005
        Cl(r)    : 0.158485
forces forces write:
    Sum of forces
        Total    : (0.0360774 0.535907 7.08166e-18)
        Pressure : (0.00992768 0.535578 7.5425e-18)
        Viscous  : (0.0261498 0.000329025 -4.6084e-19)
    Sum of moments
        Total    : (-0.00267954 0.000180387 0.227313)
        Pressure : (-0.00267789 4.96384e-05 0.227777)
        Viscous  : (-1.64513e-06 0.000130749 -0.000464338)


Time = 31

smoothSolver:  Solving for Ux, Initial residual = 0.0175217, Final residual = 0.00166403, No Iterations 3
smoothSolver:  Solving for Uy, Initial residual = 0.11884, Final residual = 0.00907443, No Iterations 2
GAMG:  Solving for p, Initial residual = 0.0394421, Final residual = 0.00342931, No Iterations 3
time step continuity errors : sum local = 0.00450619, global = -0.00012276, cumulative = 0.0169424
smoothSolver:  Solving for nuTilda, Initial residual = 0.00372636, Final residual = 0.000253359, No Iterations 4
ExecutionTime = 0.21 s  ClockTime = 0 s

forceCoeffs forceCoeffs execute:
    Coefficients
        Cd       : 0.0113155	(pressure: 0.00294144	viscous: 0.00837406)
        Cs       : -2.20425e-18	(pressure: -2.35311e-18	viscous: 1.48861e-19)
        Cl       : 0.166614	(pressure: 0.166509	viscous: 0.000104897)
        CmRoll       : -0.000833069	(pressure: -0.000832544	viscous: -5.24484e-07)
        CmPitch       : -0.0710943	(pressure: -0.0712471	viscous: 0.000152743)
        CmYaw       : 5.65775e-05	(pressure: 1.47072e-05	viscous: 4.18703e-05)
        Cd(f)    : 0.00482468
        Cd(r)    : 0.00649082
        Cs(f)    : 5.65775e-05
        Cs(r)    : -5.65775e-05
        Cl(f)    : 0.0122125
        Cl(r)    : 0.154401
forces forces write:
    Sum of forces
        Total    : (0.0353609 0.520668 6.88829e-18)
        Pressure : (0.009192 0.52034 7.35348e-18)
        Viscous  : (0.0261689 0.000327802 -4.6519e-19)
    Sum of moments
        Total    : (-0.00260334 0.000176805 0.22217)
        Pressure : (-0.0026017 4.596e-05 0.222647)
        Viscous  : (-1.63901e-06 0.000130845 -0.000477323)


Time = 32

smoothSolver:  Solving for Ux, Initial residual = 0.0163541, Final residual = 0.00161848, No Iterations 3
smoothSolver:  Solving for Uy, Initial residual = 0.113429, Final residual = 0.00892341, No Iterations 2
GAMG:  Solving for p, Initial residual = 0.0371864, Final residual = 0.0031617, No Iterations 3
time step continuity errors : sum local = 0.00411888, global = -0.000131121, cumulative = 0.0168113
smoothSolver:  Solving for nuTilda, Initial residual = 0.00351717, Final residual = 0.000246068, No Iterations 4
ExecutionTime = 0.21 s  ClockTime = 0 s

forceCoeffs forceCoeffs execute:
    Coefficients
        Cd       : 0.0111993	(pressure: 0.00280761	viscous: 0.00839168)
        Cs       : -2.14766e-18	(pressure: -2.29876e-18	viscous: 1.51102e-19)
        Cl       : 0.162186	(pressure: 0.16208	viscous: 0.000105995)
        CmRoll       : -0.000810928	(pressure: -0.000810398	viscous: -5.29975e-07)
        CmPitch       : -0.0699081	(pressure: -0.0700626	viscous: 0.000154523)
        CmYaw       : 5.59965e-05	(pressure: 1.40381e-05	viscous: 4.19584e-05)
        Cd(f)    : 0.00478872
        Cd(r)    : 0.00641057
        Cs(f)    : 5.59965e-05
        Cs(r)    : -5.59965e-05
        Cl(f)    : 0.0111847
        Cl(r)    : 0.151001
forces forces write:
    Sum of forces
        Total    : (0.0349978 0.50683 6.71142e-18)
        Pressure : (0.00877379 0.506499 7.18362e-18)
        Viscous  : (0.026224 0.000331234 -4.72193e-19)
    Sum of moments
        Total    : (-0.00253415 0.000174989 0.218463)
        Pressure : (-0.0025325 4.3869e-05 0.218946)
        Viscous  : (-1.65617e-06 0.00013112 -0.000482884)


Time = 33

smoothSolver:  Solving for Ux, Initial residual = 0.0152199, Final residual = 0.00100967, No Iterations 4
smoothSolver:  Solving for Uy, Initial residual = 0.108899, Final residual = 0.00890324, No Iterations 2
GAMG:  Solving for p, Initial residual = 0.035745, Final residual = 0.00287225, No Iterations 3
time step continuity errors : sum local = 0.00371566, global = -0.000124082, cumulative = 0.0166872
smoothSolver:  Solving for nuTilda, Initial residual = 0.00319267, Final residual = 0.000236689, No Iterations 4
ExecutionTime = 0.21 s  ClockTime = 0 s

forceCoeffs forceCoeffs execute:
    Coefficients
        Cd       : 0.011159	(pressure: 0.00276881	viscous: 0.00839018)
        Cs       : -2.09677e-18	(pressure: -2.25128e-18	viscous: 1.5451e-19)
        Cl       : 0.158409	(pressure: 0.158303	viscous: 0.00010648)
        CmRoll       : -0.000792047	(pressure: -0.000791514	viscous: -5.32402e-07)
        CmPitch       : -0.0692355	(pressure: -0.0693921	viscous: 0.000156622)
        CmYaw       : 5.57949e-05	(pressure: 1.38441e-05	viscous: 4.19509e-05)
        Cd(f)    : 0.00478745
        Cd(r)    : 0.00637154
        Cs(f)    : 5.57949e-05
        Cs(r)    : -5.57949e-05
        Cl(f)    : 0.00996915
        Cl(r)    : 0.14844
forces forces write:
    Sum of forces
        Total    : (0.0348718 0.495029 6.55241e-18)
        Pressure : (0.00865253 0.494696 7.03525e-18)
        Viscous  : (0.0262193 0.000332751 -4.82843e-19)
    Sum of moments
        Total    : (-0.00247515 0.000174359 0.216361)
        Pressure : (-0.00247348 4.32627e-05 0.21685)
        Viscous  : (-1.66376e-06 0.000131097 -0.000489445)


Time = 34

smoothSolver:  Solving for Ux, Initial residual = 0.0145371, Final residual = 0.00099046, No Iterations 4
smoothSolver:  Solving for Uy, Initial residual = 0.106087, Final residual = 0.00847187, No Iterations 2
GAMG:  Solving for p, Initial residual = 0.0337164, Final residual = 0.00270007, No Iterations 3
time step continuity errors : sum local = 0.00347279, global = -0.000110892, cumulative = 0.0165763
smoothSolver:  Solving for nuTilda, Initial residual = 0.00295302, Final residual = 0.000222225, No Iterations 4
ExecutionTime = 0.21 s  ClockTime = 0 s

forceCoeffs forceCoeffs execute:
    Coefficients
        Cd       : 0.0112066	(pressure: 0.00281194	viscous: 0.00839468)
        Cs       : -2.05347e-18	(pressure: -2.21113e-18	viscous: 1.57664e-19)
        Cl       : 0.155372	(pressure: 0.155265	viscous: 0.000107133)
        CmRoll       : -0.000776859	(pressure: -0.000776324	viscous: -5.35664e-07)
        CmPitch       : -0.0690457	(pressure: -0.0692035	viscous: 0.000157791)
        CmYaw       : 5.60331e-05	(pressure: 1.40597e-05	viscous: 4.19734e-05)
        Cd(f)    : 0.00482645
        Cd(r)    : 0.00638017
        Cs(f)    : 5.60331e-05
        Cs(r)    : -5.60331e-05
        Cl(f)    : 0.00864023
        Cl(r)    : 0.146732
forces forces write:
    Sum of forces
        Total    : (0.0350207 0.485537 6.41708e-18)
        Pressure : (0.00878731 0.485202 6.90978e-18)
        Viscous  : (0.0262334 0.00033479 -4.927e-19)
    Sum of moments
        Total    : (-0.00242768 0.000175103 0.215768)
        Pressure : (-0.00242601 4.39366e-05 0.216261)
        Viscous  : (-1.67395e-06 0.000131167 -0.000493097)


Time = 35

smoothSolver:  Solving for Ux, Initial residual = 0.0141136, Final residual = 0.000976004, No Iterations 4
smoothSolver:  Solving for Uy, Initial residual = 0.102713, Final residual = 0.00778886, No Iterations 2
GAMG:  Solving for p, Initial residual = 0.0318974, Final residual = 0.00253739, No Iterations 3
time step continuity errors : sum local = 0.00325209, global = -8.55418e-05, cumulative = 0.0164908
smoothSolver:  Solving for nuTilda, Initial residual = 0.00277868, Final residual = 0.000208975, No Iterations 4
ExecutionTime = 0.22 s  ClockTime = 0 s

forceCoeffs forceCoeffs execute:
    Coefficients
        Cd       : 0.0113115	(pressure: 0.00292304	viscous: 0.00838843)
        Cs       : -2.01687e-18	(pressure: -2.17832e-18	viscous: 1.61456e-19)
        Cl       : 0.153034	(pressure: 0.152928	viscous: 0.000106926)
        CmRoll       : -0.000765172	(pressure: -0.000764638	viscous: -5.3463e-07)
        CmPitch       : -0.0692446	(pressure: -0.0694042	viscous: 0.00015966)
        CmYaw       : 5.65573e-05	(pressure: 1.46152e-05	viscous: 4.19422e-05)
        Cd(f)    : 0.00489056
        Cd(r)    : 0.00642091
        Cs(f)    : 5.65573e-05
        Cs(r)    : -5.65573e-05
        Cl(f)    : 0.00727265
        Cl(r)    : 0.145762
forces forces write:
    Sum of forces
        Total    : (0.0353483 0.478233 6.30271e-18)
        Pressure : (0.00913449 0.477899 6.80726e-18)
        Viscous  : (0.0262138 0.000334144 -5.0455e-19)
    Sum of moments
        Total    : (-0.00239116 0.000176742 0.216389)
        Pressure : (-0.00238949 4.56725e-05 0.216888)
        Viscous  : (-1.67072e-06 0.000131069 -0.000498938)


Time = 36

smoothSolver:  Solving for Ux, Initial residual = 0.0135289, Final residual = 0.000968413, No Iterations 4
smoothSolver:  Solving for Uy, Initial residual = 0.0958752, Final residual = 0.00701542, No Iterations 2
GAMG:  Solving for p, Initial residual = 0.0294618, Final residual = 0.00229171, No Iterations 3
time step continuity errors : sum local = 0.00293519, global = -8.09849e-05, cumulative = 0.0164098
smoothSolver:  Solving for nuTilda, Initial residual = 0.00257339, Final residual = 0.000197271, No Iterations 4
ExecutionTime = 0.22 s  ClockTime = 0 s

forceCoeffs forceCoeffs execute:
    Coefficients
        Cd       : 0.0114808	(pressure: 0.00308972	viscous: 0.00839104)
        Cs       : -1.98766e-18	(pressure: -2.15352e-18	viscous: 1.65861e-19)
        Cl       : 0.151385	(pressure: 0.151278	viscous: 0.000106675)
        CmRoll       : -0.000756923	(pressure: -0.000756389	viscous: -5.33377e-07)
        CmPitch       : -0.0697672	(pressure: -0.0699285	viscous: 0.000161242)
        CmYaw       : 5.74038e-05	(pressure: 1.54486e-05	viscous: 4.19552e-05)
        Cd(f)    : 0.00498346
        Cd(r)    : 0.0064973
        Cs(f)    : 5.74038e-05
        Cs(r)    : -5.74038e-05
        Cl(f)    : 0.00592502
        Cl(r)    : 0.145459
forces forces write:
    Sum of forces
        Total    : (0.0358774 0.473077 6.21144e-18)
        Pressure : (0.00965538 0.472743 6.72975e-18)
        Viscous  : (0.026222 0.00033336 -5.18316e-19)
    Sum of moments
        Total    : (-0.00236538 0.000179387 0.218023)
        Pressure : (-0.00236372 4.82769e-05 0.218526)
        Viscous  : (-1.6668e-06 0.00013111 -0.000503882)


Time = 37

smoothSolver:  Solving for Ux, Initial residual = 0.012835, Final residual = 0.000964075, No Iterations 4
smoothSolver:  Solving for Uy, Initial residual = 0.0916995, Final residual = 0.00631481, No Iterations 2
GAMG:  Solving for p, Initial residual = 0.0269838, Final residual = 0.00202765, No Iterations 3
time step continuity errors : sum local = 0.00259707, global = -7.54128e-05, cumulative = 0.0163344
smoothSolver:  Solving for nuTilda, Initial residual = 0.00240411, Final residual = 0.000188076, No Iterations 4
ExecutionTime = 0.22 s  ClockTime = 0 s

forceCoeffs forceCoeffs execute:
    Coefficients
        Cd       : 0.0116869	(pressure: 0.00329848	viscous: 0.00838839)
        Cs       : -1.96596e-18	(pressure: -2.13662e-18	viscous: 1.7066e-19)
        Cl       : 0.150432	(pressure: 0.150326	viscous: 0.000106213)
        CmRoll       : -0.00075216	(pressure: -0.000751629	viscous: -5.31064e-07)
        CmPitch       : -0.0705735	(pressure: -0.0707364	viscous: 0.000162938)
        CmYaw       : 5.84344e-05	(pressure: 1.64924e-05	viscous: 4.19419e-05)
        Cd(f)    : 0.00509128
        Cd(r)    : 0.0065956
        Cs(f)    : 5.84344e-05
        Cs(r)    : -5.84344e-05
        Cl(f)    : 0.00464249
        Cl(r)    : 0.145789
forces forces write:
    Sum of forces
        Total    : (0.0365215 0.4701 6.14361e-18)
        Pressure : (0.0103078 0.469768 6.67692e-18)
        Viscous  : (0.0262137 0.000331915 -5.33314e-19)
    Sum of moments
        Total    : (-0.0023505 0.000182607 0.220542)
        Pressure : (-0.00234884 5.15388e-05 0.221051)
        Viscous  : (-1.65958e-06 0.000131069 -0.000509182)


Time = 38

smoothSolver:  Solving for Ux, Initial residual = 0.0120157, Final residual = 0.000960092, No Iterations 4
smoothSolver:  Solving for Uy, Initial residual = 0.0851491, Final residual = 0.00586535, No Iterations 2
GAMG:  Solving for p, Initial residual = 0.0250494, Final residual = 0.00182014, No Iterations 3
time step continuity errors : sum local = 0.00233053, global = -6.50096e-05, cumulative = 0.0162694
smoothSolver:  Solving for nuTilda, Initial residual = 0.0022421, Final residual = 0.000180551, No Iterations 4
ExecutionTime = 0.22 s  ClockTime = 0 s

forceCoeffs forceCoeffs execute:
    Coefficients
        Cd       : 0.0119256	(pressure: 0.00353541	viscous: 0.00839019)
        Cs       : -1.95218e-18	(pressure: -2.12725e-18	viscous: 1.75072e-19)
        Cl       : 0.150186	(pressure: 0.15008	viscous: 0.000106214)
        CmRoll       : -0.000750929	(pressure: -0.000750398	viscous: -5.3107e-07)
        CmPitch       : -0.0716369	(pressure: -0.0718009	viscous: 0.00016396)
        CmYaw       : 5.9628e-05	(pressure: 1.76771e-05	viscous: 4.1951e-05)
        Cd(f)    : 0.00521187
        Cd(r)    : 0.00671373
        Cs(f)    : 5.9628e-05
        Cs(r)    : -5.9628e-05
        Cl(f)    : 0.00345595
        Cl(r)    : 0.14673
forces forces write:
    Sum of forces
        Total    : (0.0372675 0.46933 6.10056e-18)
        Pressure : (0.0110482 0.468999 6.64766e-18)
        Viscous  : (0.0262194 0.000331918 -5.47099e-19)
    Sum of moments
        Total    : (-0.00234665 0.000186338 0.223865)
        Pressure : (-0.00234499 5.52408e-05 0.224378)
        Viscous  : (-1.65959e-06 0.000131097 -0.000512374)


Time = 39

smoothSolver:  Solving for Ux, Initial residual = 0.0110849, Final residual = 0.000956174, No Iterations 4
smoothSolver:  Solving for Uy, Initial residual = 0.0778421, Final residual = 0.00526001, No Iterations 2
GAMG:  Solving for p, Initial residual = 0.0229407, Final residual = 0.00167966, No Iterations 3
time step continuity errors : sum local = 0.00215021, global = -4.92633e-05, cumulative = 0.0162201
smoothSolver:  Solving for nuTilda, Initial residual = 0.00206563, Final residual = 0.00016856, No Iterations 4
ExecutionTime = 0.24 s  ClockTime = 0 s

forceCoeffs forceCoeffs execute:
    Coefficients
        Cd       : 0.0121776	(pressure: 0.00378835	viscous: 0.00838928)
        Cs       : -1.94525e-18	(pressure: -2.12475e-18	viscous: 1.79499e-19)
        Cl       : 0.150625	(pressure: 0.150519	viscous: 0.000106286)
        CmRoll       : -0.000753125	(pressure: -0.000752594	viscous: -5.3143e-07)
        CmPitch       : -0.0729253	(pressure: -0.0730902	viscous: 0.000164874)
        CmYaw       : 6.08882e-05	(pressure: 1.89417e-05	viscous: 4.19464e-05)
        Cd(f)    : 0.00533569
        Cd(r)    : 0.00684194
        Cs(f)    : 6.08882e-05
        Cs(r)    : -6.08882e-05
        Cl(f)    : 0.00238721
        Cl(r)    : 0.148238
forces forces write:
    Sum of forces
        Total    : (0.0380551 0.470703 6.07889e-18)
        Pressure : (0.0118386 0.470371 6.63983e-18)
        Viscous  : (0.0262165 0.000332144 -5.60935e-19)
    Sum of moments
        Total    : (-0.00235352 0.000190276 0.227892)
        Pressure : (-0.00235185 5.91929e-05 0.228407)
        Viscous  : (-1.66072e-06 0.000131083 -0.00051523)


Time = 40

smoothSolver:  Solving for Ux, Initial residual = 0.0104163, Final residual = 0.000953, No Iterations 4
smoothSolver:  Solving for Uy, Initial residual = 0.0712201, Final residual = 0.00479584, No Iterations 2
GAMG:  Solving for p, Initial residual = 0.0216428, Final residual = 0.00157706, No Iterations 3
time step continuity errors : sum local = 0.00201982, global = -3.00046e-05, cumulative = 0.0161901
smoothSolver:  Solving for nuTilda, Initial residual = 0.00189694, Final residual = 0.000158611, No Iterations 4
ExecutionTime = 0.24 s  ClockTime = 0 s

forceCoeffs forceCoeffs execute:
    Coefficients
        Cd       : 0.0124394	(pressure: 0.00404701	viscous: 0.00839238)
        Cs       : -1.94451e-18	(pressure: -2.12835e-18	viscous: 1.83841e-19)
        Cl       : 0.151692	(pressure: 0.151585	viscous: 0.000106566)
        CmRoll       : -0.000758458	(pressure: -0.000757925	viscous: -5.32831e-07)
        CmPitch       : -0.0743931	(pressure: -0.0745585	viscous: 0.00016545)
        CmYaw       : 6.21969e-05	(pressure: 2.02351e-05	viscous: 4.19619e-05)
        Cd(f)    : 0.00546124
        Cd(r)    : 0.00697815
        Cs(f)    : 6.21969e-05
        Cs(r)    : -6.21969e-05
        Cl(f)    : 0.00145275
        Cl(r)    : 0.150239
forces forces write:
    Sum of forces
        Total    : (0.0388731 0.474036 6.07659e-18)
        Pressure : (0.0126469 0.473703 6.6511e-18)
        Viscous  : (0.0262262 0.000333019 -5.74503e-19)
    Sum of moments
        Total    : (-0.00237018 0.000194365 0.232478)
        Pressure : (-0.00236852 6.32346e-05 0.232995)
        Viscous  : (-1.6651e-06 0.000131131 -0.00051703)


Time = 41

smoothSolver:  Solving for Ux, Initial residual = 0.009962, Final residual = 0.000952112, No Iterations 4
smoothSolver:  Solving for Uy, Initial residual = 0.0642163, Final residual = 0.00447943, No Iterations 2
GAMG:  Solving for p, Initial residual = 0.0203554, Final residual = 0.00146036, No Iterations 3
time step continuity errors : sum local = 0.00187193, global = -1.33224e-05, cumulative = 0.0161768
smoothSolver:  Solving for nuTilda, Initial residual = 0.00175068, Final residual = 0.000150698, No Iterations 4
ExecutionTime = 0.24 s  ClockTime = 0 s

forceCoeffs forceCoeffs execute:
    Coefficients
        Cd       : 0.0126957	(pressure: 0.00430233	viscous: 0.00839339)
        Cs       : -1.94932e-18	(pressure: -2.13718e-18	viscous: 1.87861e-19)
        Cl       : 0.153303	(pressure: 0.153197	viscous: 0.000106863)
        CmRoll       : -0.000766517	(pressure: -0.000765983	viscous: -5.34315e-07)
        CmPitch       : -0.0759868	(pressure: -0.0761528	viscous: 0.000165946)
        CmYaw       : 6.34786e-05	(pressure: 2.15116e-05	viscous: 4.19669e-05)
        Cd(f)    : 0.00558134
        Cd(r)    : 0.00711438
        Cs(f)    : 6.34786e-05
        Cs(r)    : -6.34786e-05
        Cl(f)    : 0.000664853
        Cl(r)    : 0.152639
forces forces write:
    Sum of forces
        Total    : (0.0396741 0.479073 6.09161e-18)
        Pressure : (0.0134448 0.478739 6.67868e-18)
        Viscous  : (0.0262293 0.000333947 -5.87066e-19)
    Sum of moments
        Total    : (-0.00239537 0.000198371 0.237459)
        Pressure : (-0.0023937 6.72239e-05 0.237977)
        Viscous  : (-1.66973e-06 0.000131147 -0.000518582)


Time = 42

smoothSolver:  Solving for Ux, Initial residual = 0.00963738, Final residual = 0.000953921, No Iterations 4
smoothSolver:  Solving for Uy, Initial residual = 0.0609991, Final residual = 0.00418359, No Iterations 2
GAMG:  Solving for p, Initial residual = 0.0189568, Final residual = 0.0013383, No Iterations 3
time step continuity errors : sum local = 0.00171721, global = 7.81686e-06, cumulative = 0.0161846
smoothSolver:  Solving for nuTilda, Initial residual = 0.00162277, Final residual = 0.000142867, No Iterations 4
ExecutionTime = 0.24 s  ClockTime = 0 s

forceCoeffs forceCoeffs execute:
    Coefficients
        Cd       : 0.0129437	(pressure: 0.00454641	viscous: 0.00839727)
        Cs       : -1.95872e-18	(pressure: -2.15025e-18	viscous: 1.91523e-19)
        Cl       : 0.155359	(pressure: 0.155252	viscous: 0.000107246)
        CmRoll       : -0.000776795	(pressure: -0.000776259	viscous: -5.36228e-07)
        CmPitch       : -0.0776494	(pressure: -0.0778157	viscous: 0.000166288)
        CmYaw       : 6.47184e-05	(pressure: 2.2732e-05	viscous: 4.19864e-05)
        Cd(f)    : 0.00569505
        Cd(r)    : 0.00724864
        Cs(f)    : 6.47184e-05
        Cs(r)    : -6.47184e-05
        Cl(f)    : 3.00975e-05
        Cl(r)    : 0.155329
forces forces write:
    Sum of forces
        Total    : (0.040449 0.485497 6.12101e-18)
        Pressure : (0.0142075 0.485162 6.71952e-18)
        Viscous  : (0.0262415 0.000335142 -5.98508e-19)
    Sum of moments
        Total    : (-0.00242748 0.000202245 0.242654)
        Pressure : (-0.00242581 7.10376e-05 0.243174)
        Viscous  : (-1.67571e-06 0.000131207 -0.00051965)


Time = 43

smoothSolver:  Solving for Ux, Initial residual = 0.00949515, Final residual = 0.000639897, No Iterations 5
smoothSolver:  Solving for Uy, Initial residual = 0.0560948, Final residual = 0.00374666, No Iterations 2
GAMG:  Solving for p, Initial residual = 0.0176441, Final residual = 0.00122538, No Iterations 3
time step continuity errors : sum local = 0.00157418, global = 2.92532e-05, cumulative = 0.0162139
smoothSolver:  Solving for nuTilda, Initial residual = 0.00152288, Final residual = 0.000137508, No Iterations 4
ExecutionTime = 0.25 s  ClockTime = 0 s

forceCoeffs forceCoeffs execute:
    Coefficients
        Cd       : 0.0131743	(pressure: 0.00477336	viscous: 0.0084009)
        Cs       : -1.97176e-18	(pressure: -2.16659e-18	viscous: 1.94824e-19)
        Cl       : 0.157744	(pressure: 0.157636	viscous: 0.000107653)
        CmRoll       : -0.00078872	(pressure: -0.000788182	viscous: -5.38265e-07)
        CmPitch       : -0.0793235	(pressure: -0.0794901	viscous: 0.000166626)
        CmYaw       : 6.58713e-05	(pressure: 2.38668e-05	viscous: 4.20045e-05)
        Cd(f)    : 0.00579841
        Cd(r)    : 0.00737585
        Cs(f)    : 6.58713e-05
        Cs(r)    : -6.58713e-05
        Cl(f)    : -0.000451494
        Cl(r)    : 0.158196
forces forces write:
    Sum of forces
        Total    : (0.0411696 0.49295 6.16176e-18)
        Pressure : (0.0149168 0.492614 6.77059e-18)
        Viscous  : (0.0262528 0.000336416 -6.08825e-19)
    Sum of moments
        Total    : (-0.00246475 0.000205848 0.247886)
        Pressure : (-0.00246307 7.45838e-05 0.248407)
        Viscous  : (-1.68208e-06 0.000131264 -0.000520706)


Time = 44

smoothSolver:  Solving for Ux, Initial residual = 0.00934843, Final residual = 0.000643152, No Iterations 5
smoothSolver:  Solving for Uy, Initial residual = 0.0514947, Final residual = 0.00330397, No Iterations 2
GAMG:  Solving for p, Initial residual = 0.0162854, Final residual = 0.00112428, No Iterations 3
time step continuity errors : sum local = 0.00144643, global = 4.67033e-05, cumulative = 0.0162606
smoothSolver:  Solving for nuTilda, Initial residual = 0.00141696, Final residual = 0.000131702, No Iterations 4
ExecutionTime = 0.25 s  ClockTime = 0 s

forceCoeffs forceCoeffs execute:
    Coefficients
        Cd       : 0.013384	(pressure: 0.0049783	viscous: 0.00840567)
        Cs       : -1.98738e-18	(pressure: -2.18498e-18	viscous: 1.97605e-19)
        Cl       : 0.160344	(pressure: 0.160236	viscous: 0.000108253)
        CmRoll       : -0.000801721	(pressure: -0.000801179	viscous: -5.41263e-07)
        CmPitch       : -0.0809579	(pressure: -0.0811247	viscous: 0.000166743)
        CmYaw       : 6.69199e-05	(pressure: 2.48915e-05	viscous: 4.20283e-05)
        Cd(f)    : 0.00589027
        Cd(r)    : 0.00749371
        Cs(f)    : 6.69199e-05
        Cs(r)    : -6.69199e-05
        Cl(f)    : -0.00078584
        Cl(r)    : 0.16113
forces forces write:
    Sum of forces
        Total    : (0.0418249 0.501075 6.21056e-18)
        Pressure : (0.0155572 0.500737 6.82808e-18)
        Viscous  : (0.0262677 0.000338289 -6.17517e-19)
    Sum of moments
        Total    : (-0.00250538 0.000209125 0.252993)
        Pressure : (-0.00250369 7.7786e-05 0.253515)
        Viscous  : (-1.69145e-06 0.000131339 -0.00052107)


Time = 45

smoothSolver:  Solving for Ux, Initial residual = 0.0092033, Final residual = 0.000645987, No Iterations 5
smoothSolver:  Solving for Uy, Initial residual = 0.0481041, Final residual = 0.00285084, No Iterations 2
GAMG:  Solving for p, Initial residual = 0.0153091, Final residual = 0.00106109, No Iterations 3
time step continuity errors : sum local = 0.00136713, global = 5.98354e-05, cumulative = 0.0163204
smoothSolver:  Solving for nuTilda, Initial residual = 0.00134318, Final residual = 0.000127775, No Iterations 4
ExecutionTime = 0.25 s  ClockTime = 0 s

forceCoeffs forceCoeffs execute:
    Coefficients
        Cd       : 0.0135681	(pressure: 0.00515857	viscous: 0.00840949)
        Cs       : -2.00453e-18	(pressure: -2.20445e-18	viscous: 1.99922e-19)
        Cl       : 0.163057	(pressure: 0.162948	viscous: 0.000108878)
        CmRoll       : -0.000815286	(pressure: -0.000814741	viscous: -5.44389e-07)
        CmPitch       : -0.0825121	(pressure: -0.0826789	viscous: 0.000166802)
        CmYaw       : 6.78403e-05	(pressure: 2.57929e-05	viscous: 4.20475e-05)
        Cd(f)    : 0.00596875
        Cd(r)    : 0.00759932
        Cs(f)    : 6.78403e-05
        Cs(r)    : -6.78403e-05
        Cl(f)    : -0.000983558
        Cl(r)    : 0.164041
forces forces write:
    Sum of forces
        Total    : (0.0424002 0.509554 6.26414e-18)
        Pressure : (0.0161205 0.509213 6.8889e-18)
        Viscous  : (0.0262797 0.000340243 -6.24757e-19)
    Sum of moments
        Total    : (-0.00254777 0.000212001 0.25785)
        Pressure : (-0.00254607 8.06027e-05 0.258372)
        Viscous  : (-1.70121e-06 0.000131398 -0.000521256)


Time = 46

smoothSolver:  Solving for Ux, Initial residual = 0.00891379, Final residual = 0.000648405, No Iterations 5
smoothSolver:  Solving for Uy, Initial residual = 0.0440893, Final residual = 0.00248934, No Iterations 2
GAMG:  Solving for p, Initial residual = 0.0143984, Final residual = 0.00101856, No Iterations 3
time step continuity errors : sum local = 0.00131414, global = 6.9351e-05, cumulative = 0.0163897
smoothSolver:  Solving for nuTilda, Initial residual = 0.00126943, Final residual = 0.000122792, No Iterations 4
ExecutionTime = 0.25 s  ClockTime = 0 s

forceCoeffs forceCoeffs execute:
    Coefficients
        Cd       : 0.013728	(pressure: 0.00531317	viscous: 0.00841484)
        Cs       : -2.02236e-18	(pressure: -2.22429e-18	viscous: 2.01928e-19)
        Cl       : 0.165804	(pressure: 0.165694	viscous: 0.000109493)
        CmRoll       : -0.000829018	(pressure: -0.000828471	viscous: -5.47466e-07)
        CmPitch       : -0.0839606	(pressure: -0.0841275	viscous: 0.000166846)
        CmYaw       : 6.864e-05	(pressure: 2.65658e-05	viscous: 4.20742e-05)
        Cd(f)    : 0.00603498
        Cd(r)    : 0.00769302
        Cs(f)    : 6.864e-05
        Cs(r)    : -6.864e-05
        Cl(f)    : -0.00105878
        Cl(r)    : 0.166862
forces forces write:
    Sum of forces
        Total    : (0.0429 0.518137 6.31987e-18)
        Pressure : (0.0166036 0.517794 6.95089e-18)
        Viscous  : (0.0262964 0.000342166 -6.31025e-19)
    Sum of moments
        Total    : (-0.00259068 0.0002145 0.262377)
        Pressure : (-0.00258897 8.30182e-05 0.262898)
        Viscous  : (-1.71083e-06 0.000131482 -0.000521394)


Time = 47

smoothSolver:  Solving for Ux, Initial residual = 0.0086264, Final residual = 0.000650406, No Iterations 5
smoothSolver:  Solving for Uy, Initial residual = 0.0405277, Final residual = 0.0021069, No Iterations 2
GAMG:  Solving for p, Initial residual = 0.0135637, Final residual = 0.000975639, No Iterations 3
time step continuity errors : sum local = 0.00126036, global = 7.4542e-05, cumulative = 0.0164643
smoothSolver:  Solving for nuTilda, Initial residual = 0.00121533, Final residual = 0.000119457, No Iterations 4
ExecutionTime = 0.26 s  ClockTime = 0 s

forceCoeffs forceCoeffs execute:
    Coefficients
        Cd       : 0.0138622	(pressure: 0.00544186	viscous: 0.00842033)
        Cs       : -2.04032e-18	(pressure: -2.24393e-18	viscous: 2.0361e-19)
        Cl       : 0.168517	(pressure: 0.168407	viscous: 0.000110085)
        CmRoll       : -0.000842586	(pressure: -0.000842036	viscous: -5.50427e-07)
        CmPitch       : -0.0852853	(pressure: -0.0854522	viscous: 0.000166935)
        CmYaw       : 6.93109e-05	(pressure: 2.72093e-05	viscous: 4.21016e-05)
        Cd(f)    : 0.0060885
        Cd(r)    : 0.00777368
        Cs(f)    : 6.93109e-05
        Cs(r)    : -6.93109e-05
        Cl(f)    : -0.00102669
        Cl(r)    : 0.169544
forces forces write:
    Sum of forces
        Total    : (0.0433193 0.526616 6.37599e-18)
        Pressure : (0.0170058 0.526272 7.01227e-18)
        Viscous  : (0.0263135 0.000344017 -6.36282e-19)
    Sum of moments
        Total    : (-0.00263308 0.000216597 0.266517)
        Pressure : (-0.00263136 8.5029e-05 0.267038)
        Viscous  : (-1.72008e-06 0.000131568 -0.000521673)


Time = 48

[...]


Time = 789

smoothSolver:  Solving for Ux, Initial residual = 1.19655e-05, Final residual = 5.64086e-07, No Iterations 1
smoothSolver:  Solving for Uy, Initial residual = 1.06334e-05, Final residual = 2.35723e-07, No Iterations 1
GAMG:  Solving for p, Initial residual = 7.93009e-07, Final residual = 7.93009e-07, No Iterations 0
time step continuity errors : sum local = 1.07893e-06, global = -1.27095e-09, cumulative = 0.0175496
smoothSolver:  Solving for nuTilda, Initial residual = 5.86545e-05, Final residual = 3.00254e-06, No Iterations 2
ExecutionTime = 3.11 s  ClockTime = 3 s

forceCoeffs forceCoeffs execute:
    Coefficients
        Cd       : 0.0137981	(pressure: 0.00528721	viscous: 0.00851093)
        Cs       : -2.11175e-18	(pressure: -2.32162e-18	viscous: 2.09871e-19)
        Cl       : 0.182414	(pressure: 0.182298	viscous: 0.000116034)
        CmRoll       : -0.000912072	(pressure: -0.000911491	viscous: -5.80168e-07)
        CmPitch       : -0.088498	(pressure: -0.0886682	viscous: 0.000170226)
        CmYaw       : 6.89907e-05	(pressure: 2.64361e-05	viscous: 4.25547e-05)
        Cd(f)    : 0.005987
        Cd(r)    : 0.00781114
        Cs(f)    : 6.89907e-05
        Cs(r)    : -6.89907e-05
        Cl(f)    : 0.00270917
        Cl(r)    : 0.179705
forces forces write:
    Sum of forces
        Total    : (0.0431192 0.570045 6.59921e-18)
        Pressure : (0.0165225 0.569682 7.25506e-18)
        Viscous  : (0.0265967 0.000362605 -6.55848e-19)
    Sum of moments
        Total    : (-0.00285022 0.000215596 0.276556)
        Pressure : (-0.00284841 8.26127e-05 0.277088)
        Viscous  : (-1.81302e-06 0.000132983 -0.000531956)


Time = 790

smoothSolver:  Solving for Ux, Initial residual = 6.13369e-06, Final residual = 6.13369e-06, No Iterations 0
smoothSolver:  Solving for Uy, Initial residual = 5.40876e-06, Final residual = 5.40876e-06, No Iterations 0
GAMG:  Solving for p, Initial residual = 1.18816e-06, Final residual = 2.48153e-07, No Iterations 1
time step continuity errors : sum local = 3.37626e-07, global = 5.81456e-09, cumulative = 0.0175496
smoothSolver:  Solving for nuTilda, Initial residual = 5.2962e-05, Final residual = 4.06783e-06, No Iterations 2
ExecutionTime = 3.11 s  ClockTime = 3 s

forceCoeffs forceCoeffs execute:
    Coefficients
        Cd       : 0.0137981	(pressure: 0.00528721	viscous: 0.00851093)
        Cs       : -2.11175e-18	(pressure: -2.32162e-18	viscous: 2.09872e-19)
        Cl       : 0.182414	(pressure: 0.182298	viscous: 0.000116034)
        CmRoll       : -0.000912072	(pressure: -0.000911491	viscous: -5.80168e-07)
        CmPitch       : -0.088498	(pressure: -0.0886682	viscous: 0.000170226)
        CmYaw       : 6.89907e-05	(pressure: 2.64361e-05	viscous: 4.25546e-05)
        Cd(f)    : 0.005987
        Cd(r)    : 0.00781114
        Cs(f)    : 6.89907e-05
        Cs(r)    : -6.89907e-05
        Cl(f)    : 0.00270917
        Cl(r)    : 0.179705
forces forces write:
    Sum of forces
        Total    : (0.0431192 0.570045 6.59921e-18)
        Pressure : (0.0165225 0.569682 7.25506e-18)
        Viscous  : (0.0265967 0.000362605 -6.55848e-19)
    Sum of moments
        Total    : (-0.00285022 0.000215596 0.276556)
        Pressure : (-0.00284841 8.26127e-05 0.277088)
        Viscous  : (-1.81302e-06 0.000132983 -0.000531956)


Time = 791

smoothSolver:  Solving for Ux, Initial residual = 8.03783e-06, Final residual = 8.03783e-06, No Iterations 0
smoothSolver:  Solving for Uy, Initial residual = 7.32262e-06, Final residual = 7.32262e-06, No Iterations 0
GAMG:  Solving for p, Initial residual = 1.18909e-06, Final residual = 2.47474e-07, No Iterations 1
time step continuity errors : sum local = 3.36702e-07, global = 6.86081e-09, cumulative = 0.0175496
smoothSolver:  Solving for nuTilda, Initial residual = 5.97157e-05, Final residual = 3.06642e-06, No Iterations 2
ExecutionTime = 3.11 s  ClockTime = 3 s

forceCoeffs forceCoeffs execute:
    Coefficients
        Cd       : 0.0137981	(pressure: 0.00528721	viscous: 0.00851093)
        Cs       : -2.11175e-18	(pressure: -2.32162e-18	viscous: 2.09871e-19)
        Cl       : 0.182414	(pressure: 0.182298	viscous: 0.000116034)
        CmRoll       : -0.000912072	(pressure: -0.000911491	viscous: -5.80168e-07)
        CmPitch       : -0.088498	(pressure: -0.0886682	viscous: 0.000170226)
        CmYaw       : 6.89907e-05	(pressure: 2.64361e-05	viscous: 4.25546e-05)
        Cd(f)    : 0.005987
        Cd(r)    : 0.00781114
        Cs(f)    : 6.89907e-05
        Cs(r)    : -6.89907e-05
        Cl(f)    : 0.00270917
        Cl(r)    : 0.179705
forces forces write:
    Sum of forces
        Total    : (0.0431192 0.570045 6.59921e-18)
        Pressure : (0.0165225 0.569682 7.25506e-18)
        Viscous  : (0.0265966 0.000362605 -6.55847e-19)
    Sum of moments
        Total    : (-0.00285022 0.000215596 0.276556)
        Pressure : (-0.00284841 8.26127e-05 0.277088)
        Viscous  : (-1.81302e-06 0.000132983 -0.000531956)


Time = 792

smoothSolver:  Solving for Ux, Initial residual = 1.04758e-05, Final residual = 5.26196e-07, No Iterations 1
smoothSolver:  Solving for Uy, Initial residual = 9.52543e-06, Final residual = 9.52543e-06, No Iterations 0
GAMG:  Solving for p, Initial residual = 2.07115e-06, Final residual = 3.57614e-07, No Iterations 1
time step continuity errors : sum local = 4.86553e-07, global = -8.52114e-09, cumulative = 0.0175496
smoothSolver:  Solving for nuTilda, Initial residual = 5.3081e-05, Final residual = 4.07605e-06, No Iterations 2
ExecutionTime = 3.13 s  ClockTime = 3 s

forceCoeffs forceCoeffs execute:
    Coefficients
        Cd       : 0.0137981	(pressure: 0.00528721	viscous: 0.00851091)
        Cs       : -2.11175e-18	(pressure: -2.32162e-18	viscous: 2.09872e-19)
        Cl       : 0.182414	(pressure: 0.182298	viscous: 0.000116033)
        CmRoll       : -0.000912072	(pressure: -0.000911491	viscous: -5.80166e-07)
        CmPitch       : -0.088498	(pressure: -0.0886682	viscous: 0.000170226)
        CmYaw       : 6.89906e-05	(pressure: 2.64361e-05	viscous: 4.25546e-05)
        Cd(f)    : 0.00598699
        Cd(r)    : 0.00781113
        Cs(f)    : 6.89906e-05
        Cs(r)    : -6.89906e-05
        Cl(f)    : 0.00270917
        Cl(r)    : 0.179705
forces forces write:
    Sum of forces
        Total    : (0.0431191 0.570045 6.59921e-18)
        Pressure : (0.0165225 0.569682 7.25506e-18)
        Viscous  : (0.0265966 0.000362604 -6.55848e-19)
    Sum of moments
        Total    : (-0.00285022 0.000215596 0.276556)
        Pressure : (-0.00284841 8.26127e-05 0.277088)
        Viscous  : (-1.81302e-06 0.000132983 -0.000531957)


Time = 793

smoothSolver:  Solving for Ux, Initial residual = 6.20122e-06, Final residual = 6.20122e-06, No Iterations 0
smoothSolver:  Solving for Uy, Initial residual = 1.01285e-05, Final residual = 2.15602e-07, No Iterations 1
GAMG:  Solving for p, Initial residual = 1.21865e-06, Final residual = 2.51313e-07, No Iterations 1
time step continuity errors : sum local = 3.41925e-07, global = -6.18252e-09, cumulative = 0.0175495
smoothSolver:  Solving for nuTilda, Initial residual = 5.8534e-05, Final residual = 3.00952e-06, No Iterations 2
ExecutionTime = 3.13 s  ClockTime = 3 s

forceCoeffs forceCoeffs execute:
    Coefficients
        Cd       : 0.0137981	(pressure: 0.00528721	viscous: 0.00851092)
        Cs       : -2.11175e-18	(pressure: -2.32162e-18	viscous: 2.09871e-19)
        Cl       : 0.182414	(pressure: 0.182298	viscous: 0.000116033)
        CmRoll       : -0.000912072	(pressure: -0.000911491	viscous: -5.80166e-07)
        CmPitch       : -0.088498	(pressure: -0.0886682	viscous: 0.000170226)
        CmYaw       : 6.89906e-05	(pressure: 2.64361e-05	viscous: 4.25546e-05)
        Cd(f)    : 0.00598699
        Cd(r)    : 0.00781114
        Cs(f)    : 6.89906e-05
        Cs(r)    : -6.89906e-05
        Cl(f)    : 0.00270916
        Cl(r)    : 0.179705
forces forces write:
    Sum of forces
        Total    : (0.0431192 0.570045 6.59921e-18)
        Pressure : (0.0165225 0.569682 7.25506e-18)
        Viscous  : (0.0265966 0.000362604 -6.55847e-19)
    Sum of moments
        Total    : (-0.00285022 0.000215596 0.276556)
        Pressure : (-0.00284841 8.26127e-05 0.277088)
        Viscous  : (-1.81302e-06 0.000132983 -0.000531957)


Time = 794

smoothSolver:  Solving for Ux, Initial residual = 7.66917e-06, Final residual = 7.66917e-06, No Iterations 0
smoothSolver:  Solving for Uy, Initial residual = 6.05357e-06, Final residual = 6.05357e-06, No Iterations 0
GAMG:  Solving for p, Initial residual = 1.05964e-06, Final residual = 2.34617e-07, No Iterations 1
time step continuity errors : sum local = 3.19209e-07, global = -1.11014e-09, cumulative = 0.0175495
smoothSolver:  Solving for nuTilda, Initial residual = 5.27664e-05, Final residual = 4.06942e-06, No Iterations 2
ExecutionTime = 3.13 s  ClockTime = 3 s

forceCoeffs forceCoeffs execute:
    Coefficients
        Cd       : 0.0137981	(pressure: 0.00528721	viscous: 0.00851092)
        Cs       : -2.11175e-18	(pressure: -2.32162e-18	viscous: 2.09872e-19)
        Cl       : 0.182414	(pressure: 0.182298	viscous: 0.000116033)
        CmRoll       : -0.000912072	(pressure: -0.000911491	viscous: -5.80167e-07)
        CmPitch       : -0.088498	(pressure: -0.0886682	viscous: 0.000170226)
        CmYaw       : 6.89906e-05	(pressure: 2.64361e-05	viscous: 4.25546e-05)
        Cd(f)    : 0.00598699
        Cd(r)    : 0.00781114
        Cs(f)    : 6.89906e-05
        Cs(r)    : -6.89906e-05
        Cl(f)    : 0.00270917
        Cl(r)    : 0.179705
forces forces write:
    Sum of forces
        Total    : (0.0431192 0.570045 6.59921e-18)
        Pressure : (0.0165225 0.569682 7.25506e-18)
        Viscous  : (0.0265966 0.000362604 -6.55849e-19)
    Sum of moments
        Total    : (-0.00285022 0.000215596 0.276556)
        Pressure : (-0.00284841 8.26127e-05 0.277088)
        Viscous  : (-1.81302e-06 0.000132983 -0.000531957)


Time = 795

smoothSolver:  Solving for Ux, Initial residual = 9.59137e-06, Final residual = 9.59137e-06, No Iterations 0
smoothSolver:  Solving for Uy, Initial residual = 8.20942e-06, Final residual = 8.20942e-06, No Iterations 0
GAMG:  Solving for p, Initial residual = 1.2416e-06, Final residual = 2.79407e-07, No Iterations 1
time step continuity errors : sum local = 3.80149e-07, global = 1.18323e-08, cumulative = 0.0175496
smoothSolver:  Solving for nuTilda, Initial residual = 5.9698e-05, Final residual = 3.04518e-06, No Iterations 2
ExecutionTime = 3.13 s  ClockTime = 3 s

forceCoeffs forceCoeffs execute:
    Coefficients
        Cd       : 0.0137981	(pressure: 0.00528721	viscous: 0.00851092)
        Cs       : -2.11175e-18	(pressure: -2.32162e-18	viscous: 2.09871e-19)
        Cl       : 0.182414	(pressure: 0.182298	viscous: 0.000116033)
        CmRoll       : -0.000912072	(pressure: -0.000911491	viscous: -5.80167e-07)
        CmPitch       : -0.088498	(pressure: -0.0886682	viscous: 0.000170226)
        CmYaw       : 6.89907e-05	(pressure: 2.64361e-05	viscous: 4.25546e-05)
        Cd(f)    : 0.005987
        Cd(r)    : 0.00781114
        Cs(f)    : 6.89907e-05
        Cs(r)    : -6.89907e-05
        Cl(f)    : 0.00270916
        Cl(r)    : 0.179705
forces forces write:
    Sum of forces
        Total    : (0.0431192 0.570045 6.59921e-18)
        Pressure : (0.0165225 0.569682 7.25506e-18)
        Viscous  : (0.0265966 0.000362605 -6.55847e-19)
    Sum of moments
        Total    : (-0.00285022 0.000215596 0.276556)
        Pressure : (-0.00284841 8.26127e-05 0.277088)
        Viscous  : (-1.81302e-06 0.000132983 -0.000531956)


Time = 796

smoothSolver:  Solving for Ux, Initial residual = 1.21744e-05, Final residual = 5.7937e-07, No Iterations 1
smoothSolver:  Solving for Uy, Initial residual = 1.05761e-05, Final residual = 2.35889e-07, No Iterations 1
GAMG:  Solving for p, Initial residual = 7.81754e-07, Final residual = 7.81754e-07, No Iterations 0
time step continuity errors : sum local = 1.06362e-06, global = 1.68649e-09, cumulative = 0.0175496
smoothSolver:  Solving for nuTilda, Initial residual = 5.31509e-05, Final residual = 4.05924e-06, No Iterations 2
ExecutionTime = 3.13 s  ClockTime = 3 s

forceCoeffs forceCoeffs execute:
    Coefficients
        Cd       : 0.0137981	(pressure: 0.00528721	viscous: 0.00851091)
        Cs       : -2.11175e-18	(pressure: -2.32162e-18	viscous: 2.09871e-19)
        Cl       : 0.182414	(pressure: 0.182298	viscous: 0.000116034)
        CmRoll       : -0.000912072	(pressure: -0.000911491	viscous: -5.80168e-07)
        CmPitch       : -0.088498	(pressure: -0.0886682	viscous: 0.000170226)
        CmYaw       : 6.89906e-05	(pressure: 2.64361e-05	viscous: 4.25546e-05)
        Cd(f)    : 0.00598699
        Cd(r)    : 0.00781113
        Cs(f)    : 6.89906e-05
        Cs(r)    : -6.89906e-05
        Cl(f)    : 0.00270916
        Cl(r)    : 0.179705
forces forces write:
    Sum of forces
        Total    : (0.0431191 0.570045 6.59921e-18)
        Pressure : (0.0165225 0.569682 7.25506e-18)
        Viscous  : (0.0265966 0.000362605 -6.55848e-19)
    Sum of moments
        Total    : (-0.00285022 0.000215596 0.276556)
        Pressure : (-0.00284841 8.26127e-05 0.277088)
        Viscous  : (-1.81302e-06 0.000132983 -0.000531956)


Time = 797

smoothSolver:  Solving for Ux, Initial residual = 6.2418e-06, Final residual = 6.2418e-06, No Iterations 0
smoothSolver:  Solving for Uy, Initial residual = 5.37496e-06, Final residual = 5.37496e-06, No Iterations 0
GAMG:  Solving for p, Initial residual = 1.26585e-06, Final residual = 2.71919e-07, No Iterations 1
time step continuity errors : sum local = 3.69961e-07, global = -3.52629e-09, cumulative = 0.0175496
smoothSolver:  Solving for nuTilda, Initial residual = 5.8636e-05, Final residual = 3.02449e-06, No Iterations 2
ExecutionTime = 3.14 s  ClockTime = 3 s

forceCoeffs forceCoeffs execute:
    Coefficients
        Cd       : 0.0137981	(pressure: 0.00528721	viscous: 0.00851091)
        Cs       : -2.11175e-18	(pressure: -2.32162e-18	viscous: 2.09871e-19)
        Cl       : 0.182414	(pressure: 0.182298	viscous: 0.000116033)
        CmRoll       : -0.000912072	(pressure: -0.000911491	viscous: -5.80167e-07)
        CmPitch       : -0.088498	(pressure: -0.0886682	viscous: 0.000170226)
        CmYaw       : 6.89906e-05	(pressure: 2.6436e-05	viscous: 4.25546e-05)
        Cd(f)    : 0.00598699
        Cd(r)    : 0.00781113
        Cs(f)    : 6.89906e-05
        Cs(r)    : -6.89906e-05
        Cl(f)    : 0.00270915
        Cl(r)    : 0.179705
forces forces write:
    Sum of forces
        Total    : (0.0431191 0.570045 6.59921e-18)
        Pressure : (0.0165225 0.569682 7.25505e-18)
        Viscous  : (0.0265966 0.000362605 -6.55847e-19)
    Sum of moments
        Total    : (-0.00285022 0.000215596 0.276556)
        Pressure : (-0.00284841 8.26127e-05 0.277088)
        Viscous  : (-1.81302e-06 0.000132983 -0.000531955)


Time = 798

smoothSolver:  Solving for Ux, Initial residual = 8.24878e-06, Final residual = 8.24878e-06, No Iterations 0
smoothSolver:  Solving for Uy, Initial residual = 6.99614e-06, Final residual = 6.99614e-06, No Iterations 0
GAMG:  Solving for p, Initial residual = 1.20165e-06, Final residual = 2.53885e-07, No Iterations 1
time step continuity errors : sum local = 3.45424e-07, global = -6.52817e-09, cumulative = 0.0175496
smoothSolver:  Solving for nuTilda, Initial residual = 5.28426e-05, Final residual = 4.08141e-06, No Iterations 2
ExecutionTime = 3.14 s  ClockTime = 3 s

forceCoeffs forceCoeffs execute:
    Coefficients
        Cd       : 0.0137981	(pressure: 0.00528721	viscous: 0.00851092)
        Cs       : -2.11175e-18	(pressure: -2.32162e-18	viscous: 2.09872e-19)
        Cl       : 0.182414	(pressure: 0.182298	viscous: 0.000116034)
        CmRoll       : -0.000912072	(pressure: -0.000911491	viscous: -5.80168e-07)
        CmPitch       : -0.088498	(pressure: -0.0886682	viscous: 0.000170226)
        CmYaw       : 6.89906e-05	(pressure: 2.64361e-05	viscous: 4.25546e-05)
        Cd(f)    : 0.00598699
        Cd(r)    : 0.00781113
        Cs(f)    : 6.89906e-05
        Cs(r)    : -6.89906e-05
        Cl(f)    : 0.00270916
        Cl(r)    : 0.179705
forces forces write:
    Sum of forces
        Total    : (0.0431191 0.570045 6.59921e-18)
        Pressure : (0.0165225 0.569682 7.25506e-18)
        Viscous  : (0.0265966 0.000362605 -6.55849e-19)
    Sum of moments
        Total    : (-0.00285022 0.000215596 0.276556)
        Pressure : (-0.00284841 8.26127e-05 0.277088)
        Viscous  : (-1.81302e-06 0.000132983 -0.000531956)


Time = 799

smoothSolver:  Solving for Ux, Initial residual = 1.08532e-05, Final residual = 5.37361e-07, No Iterations 1
smoothSolver:  Solving for Uy, Initial residual = 9.24968e-06, Final residual = 9.24968e-06, No Iterations 0
GAMG:  Solving for p, Initial residual = 2.1415e-06, Final residual = 3.65889e-07, No Iterations 1
time step continuity errors : sum local = 4.97812e-07, global = 1.37188e-08, cumulative = 0.0175496
smoothSolver:  Solving for nuTilda, Initial residual = 5.96701e-05, Final residual = 3.05325e-06, No Iterations 2
ExecutionTime = 3.14 s  ClockTime = 3 s

forceCoeffs forceCoeffs execute:
    Coefficients
        Cd       : 0.0137981	(pressure: 0.00528721	viscous: 0.00851093)
        Cs       : -2.11175e-18	(pressure: -2.32162e-18	viscous: 2.09871e-19)
        Cl       : 0.182414	(pressure: 0.182298	viscous: 0.000116034)
        CmRoll       : -0.000912072	(pressure: -0.000911491	viscous: -5.8017e-07)
        CmPitch       : -0.088498	(pressure: -0.0886682	viscous: 0.000170226)
        CmYaw       : 6.89907e-05	(pressure: 2.6436e-05	viscous: 4.25547e-05)
        Cd(f)    : 0.005987
        Cd(r)    : 0.00781114
        Cs(f)    : 6.89907e-05
        Cs(r)    : -6.89907e-05
        Cl(f)    : 0.00270915
        Cl(r)    : 0.179705
forces forces write:
    Sum of forces
        Total    : (0.0431192 0.570045 6.59921e-18)
        Pressure : (0.0165225 0.569682 7.25505e-18)
        Viscous  : (0.0265967 0.000362606 -6.55847e-19)
    Sum of moments
        Total    : (-0.00285022 0.000215596 0.276556)
        Pressure : (-0.00284841 8.26126e-05 0.277088)
        Viscous  : (-1.81303e-06 0.000132983 -0.000531955)


Time = 800

smoothSolver:  Solving for Ux, Initial residual = 6.30976e-06, Final residual = 6.30976e-06, No Iterations 0
smoothSolver:  Solving for Uy, Initial residual = 1.00185e-05, Final residual = 2.05486e-07, No Iterations 1
GAMG:  Solving for p, Initial residual = 1.18717e-06, Final residual = 2.49205e-07, No Iterations 1
time step continuity errors : sum local = 3.39057e-07, global = 6.32942e-09, cumulative = 0.0175496
smoothSolver:  Solving for nuTilda, Initial residual = 5.3082e-05, Final residual = 4.06834e-06, No Iterations 2
ExecutionTime = 3.16 s  ClockTime = 3 s

forceCoeffs forceCoeffs execute:
    Coefficients
        Cd       : 0.0137981	(pressure: 0.00528721	viscous: 0.00851093)
        Cs       : -2.11175e-18	(pressure: -2.32162e-18	viscous: 2.09872e-19)
        Cl       : 0.182414	(pressure: 0.182298	viscous: 0.000116034)
        CmRoll       : -0.000912072	(pressure: -0.000911492	viscous: -5.8017e-07)
        CmPitch       : -0.088498	(pressure: -0.0886682	viscous: 0.000170226)
        CmYaw       : 6.89907e-05	(pressure: 2.6436e-05	viscous: 4.25546e-05)
        Cd(f)    : 0.005987
        Cd(r)    : 0.00781114
        Cs(f)    : 6.89907e-05
        Cs(r)    : -6.89907e-05
        Cl(f)    : 0.00270916
        Cl(r)    : 0.179705
forces forces write:
    Sum of forces
        Total    : (0.0431192 0.570045 6.59921e-18)
        Pressure : (0.0165225 0.569682 7.25506e-18)
        Viscous  : (0.0265966 0.000362606 -6.55849e-19)
    Sum of moments
        Total    : (-0.00285022 0.000215596 0.276556)
        Pressure : (-0.00284841 8.26127e-05 0.277088)
        Viscous  : (-1.81303e-06 0.000132983 -0.000531955)


End

