/*---------------------------------------------------------------------------*\
| =========                 |                                                 |
| \\      /  F ield         | OpenFOAM: The Open Source CFD Toolbox           |
|  \\    /   O peration     | Version:  v1912                                 |
|   \\  /    A nd           | Website:  www.openfoam.com                      |
|    \\/     M anipulation  |                                                 |
\*---------------------------------------------------------------------------*/
Build  : _f3950763fe-20191219 OPENFOAM=1912
Arch   : "LSB;label=32;scalar=64"
Exec   : simpleFoam
Date   : Jun 23 2020
Time   : 11:00:48
Host   : DESKTOP-7S8DQ3L
PID    : 764
I/O    : uncollated
Case   : /home/logankp/OpenFOAM/logankp-v1912/run/CFD/TurbulanceModels-flat-plate/k-wSST
nProcs : 1
trapFpe: Floating point exception trapping enabled (FOAM_SIGFPE).
fileModificationChecking : Monitoring run-time modified files using timeStampMaster (fileModificationSkew 10)
allowSystemOperations : Allowing user-supplied system call operations

// * * * * * * * * * * * * * * * * * * * * * * * * * * * * * * * * * * * * * //
Create time

Create mesh for time = 0


SIMPLE: convergence criteria
    field p	 tolerance 1e-05
    field U	 tolerance 1e-06
    field "(k|epsilon|omega|nuTilda|f|v2)"	 tolerance 1e-06

Reading field p

Reading field U

Reading/calculating face flux field phi

Selecting incompressible transport model Newtonian
Selecting turbulence model type RAS
Selecting RAS turbulence model kOmegaSST
Selecting patchDistMethod meshWave
--> FOAM Warning : 
    From function Foam::Field<Type>::Field(const Foam::word&, const Foam::dictionary&, Foam::label) [with Type = double; Foam::label = int]
    in file /home/pawan/OpenFOAM/OpenFOAM-v1912/src/OpenFOAM/lnInclude/Field.C at line 239
    Reading "/home/logankp/OpenFOAM/logankp-v1912/run/CFD/TurbulanceModels-flat-plate/k-wSST/0/omega.boundaryField.plate"
    Expected keyword 'uniform' or 'nonuniform', assuming deprecated Field format from Foam version 2.0.
bounding k, min: 0 max: 0.00375 average: 0.00375
bounding omega, min: 0 max: 800 average: 800
RAS
{
    RASModel        kOmegaSST;
    turbulence      on;
    printCoeffs     on;
    alphaK1         0.85;
    alphaK2         1;
    alphaOmega1     0.5;
    alphaOmega2     0.856;
    gamma1          0.555556;
    gamma2          0.44;
    beta1           0.075;
    beta2           0.0828;
    betaStar        0.09;
    a1              0.31;
    b1              1;
    c1              10;
    F3              false;
    decayControl    false;
    kInf            0;
    omegaInf        0;
}

No MRF models present

No finite volume options present

Starting time loop

forceCoeffs forceCoeffs:
    rho: rhoInf
    Freestream density (rhoInf) set to 1.2255
    Not including porosity effects

forces forces:
--> FOAM Warning : 
    From function Foam::labelHashSet Foam::polyBoundaryMesh::patchSet(const Foam::UList<Foam::wordRe>&, bool, bool) const
    in file meshes/polyMesh/polyBoundaryMesh/polyBoundaryMesh.C at line 891
    Cannot find any patch or group names matching wing
    rho: rhoInf
    Freestream density (rhoInf) set to 1
    Not including porosity effects

Time = 1

smoothSolver:  Solving for Ux, Initial residual = 1, Final residual = 0.0476952, No Iterations 3
smoothSolver:  Solving for Uy, Initial residual = 1, Final residual = 0.0547236, No Iterations 2
GAMG:  Solving for p, Initial residual = 1, Final residual = 0.0816385, No Iterations 12
time step continuity errors : sum local = 6.09259e-06, global = -1.19005e-06, cumulative = -1.19005e-06
smoothSolver:  Solving for omega, Initial residual = 0.945338, Final residual = 0.0880519, No Iterations 11
smoothSolver:  Solving for k, Initial residual = 1, Final residual = 0.0918734, No Iterations 11
ExecutionTime = 0.15 s  ClockTime = 0 s

forceCoeffs forceCoeffs execute:
    Coefficients
        Cd       : 0.00633022	(pressure: 0	viscous: 0.00633022)
        Cs       : 0	(pressure: 0	viscous: 0)
        Cl       : -0.0033843	(pressure: -0.00338464	viscous: 3.38619e-07)
        CmRoll       : 2.11519e-06	(pressure: 2.1154e-06	viscous: -2.11637e-10)
        CmPitch       : 0.000933616	(pressure: 0.000933747	viscous: -1.31097e-07)
        CmYaw       : 3.95639e-06	(pressure: 0	viscous: 3.95639e-06)
        Cd(f)    : 0.00316723
        Cd(r)    : 0.00316299
        Cs(f)    : 3.95639e-06
        Cs(r)    : -3.95639e-06
        Cl(f)    : -0.000758533
        Cl(r)    : -0.00262577
forces forces write:
    Sum of forces
        Total    : (0 0 0)
        Pressure : (0 0 0)
        Viscous  : (0 0 0)
    Sum of moments
        Total    : (0 0 0)
        Pressure : (0 0 0)
        Viscous  : (0 0 0)


Time = 2

smoothSolver:  Solving for Ux, Initial residual = 0.0187539, Final residual = 0.00161256, No Iterations 7
smoothSolver:  Solving for Uy, Initial residual = 0.446909, Final residual = 0.0433089, No Iterations 11
GAMG:  Solving for p, Initial residual = 0.00121116, Final residual = 8.09825e-05, No Iterations 7
time step continuity errors : sum local = 9.70857e-06, global = 3.95521e-06, cumulative = 2.76516e-06
smoothSolver:  Solving for omega, Initial residual = 0.346176, Final residual = 0.0291754, No Iterations 10
smoothSolver:  Solving for k, Initial residual = 0.852383, Final residual = 0.0735534, No Iterations 10
ExecutionTime = 0.18 s  ClockTime = 0 s

forceCoeffs forceCoeffs execute:
    Coefficients
        Cd       : 0.00553754	(pressure: 0	viscous: 0.00553754)
        Cs       : 0	(pressure: 0	viscous: 0)
        Cl       : -0.00327863	(pressure: -0.00327928	viscous: 6.5018e-07)
        CmRoll       : 2.04914e-06	(pressure: 2.04955e-06	viscous: -4.06362e-10)
        CmPitch       : 0.000934847	(pressure: 0.000934992	viscous: -1.44689e-07)
        CmYaw       : 3.46096e-06	(pressure: 0	viscous: 3.46096e-06)
        Cd(f)    : 0.00277082
        Cd(r)    : 0.00276672
        Cs(f)    : 3.46096e-06
        Cs(r)    : -3.46096e-06
        Cl(f)    : -0.000704467
        Cl(r)    : -0.00257416
forces forces write:
    Sum of forces
        Total    : (0 0 0)
        Pressure : (0 0 0)
        Viscous  : (0 0 0)
    Sum of moments
        Total    : (0 0 0)
        Pressure : (0 0 0)
        Viscous  : (0 0 0)


Time = 3

smoothSolver:  Solving for Ux, Initial residual = 0.00916844, Final residual = 0.00085, No Iterations 7
smoothSolver:  Solving for Uy, Initial residual = 0.271876, Final residual = 0.0264218, No Iterations 11
GAMG:  Solving for p, Initial residual = 0.00110653, Final residual = 9.23314e-05, No Iterations 5
time step continuity errors : sum local = 1.09456e-05, global = 4.43099e-06, cumulative = 7.19615e-06
smoothSolver:  Solving for omega, Initial residual = 0.249064, Final residual = 0.0220004, No Iterations 9
smoothSolver:  Solving for k, Initial residual = 0.662592, Final residual = 0.0612019, No Iterations 7
ExecutionTime = 0.21 s  ClockTime = 0 s

forceCoeffs forceCoeffs execute:
    Coefficients
        Cd       : 0.00465171	(pressure: 0	viscous: 0.00465171)
        Cs       : 0	(pressure: 0	viscous: 0)
        Cl       : -0.00314148	(pressure: -0.00314233	viscous: 8.46523e-07)
        CmRoll       : 1.96343e-06	(pressure: 1.96396e-06	viscous: -5.29077e-10)
        CmPitch       : 0.000912785	(pressure: 0.000912896	viscous: -1.1124e-07)
        CmYaw       : 2.90732e-06	(pressure: 0	viscous: 2.90732e-06)
        Cd(f)    : 0.00232782
        Cd(r)    : 0.00232389
        Cs(f)    : 2.90732e-06
        Cs(r)    : -2.90732e-06
        Cl(f)    : -0.000657956
        Cl(r)    : -0.00248353
forces forces write:
    Sum of forces
        Total    : (0 0 0)
        Pressure : (0 0 0)
        Viscous  : (0 0 0)
    Sum of moments
        Total    : (0 0 0)
        Pressure : (0 0 0)
        Viscous  : (0 0 0)


Time = 4

smoothSolver:  Solving for Ux, Initial residual = 0.00557088, Final residual = 0.000554799, No Iterations 7
smoothSolver:  Solving for Uy, Initial residual = 0.190844, Final residual = 0.0186005, No Iterations 11
GAMG:  Solving for p, Initial residual = 0.00108049, Final residual = 8.92159e-05, No Iterations 7
time step continuity errors : sum local = 1.02194e-05, global = 3.14435e-06, cumulative = 1.03405e-05
smoothSolver:  Solving for omega, Initial residual = 0.192364, Final residual = 0.0171029, No Iterations 8
smoothSolver:  Solving for k, Initial residual = 0.485655, Final residual = 0.0452206, No Iterations 6
ExecutionTime = 0.23 s  ClockTime = 0 s

forceCoeffs forceCoeffs execute:
    Coefficients
        Cd       : 0.00419552	(pressure: 0	viscous: 0.00419552)
        Cs       : 0	(pressure: 0	viscous: 0)
        Cl       : -0.00255554	(pressure: -0.0025565	viscous: 9.58504e-07)
        CmRoll       : 1.59721e-06	(pressure: 1.59781e-06	viscous: -5.99065e-10)
        CmPitch       : 0.000761292	(pressure: 0.00076138	viscous: -8.84215e-08)
        CmYaw       : 2.6222e-06	(pressure: 0	viscous: 2.6222e-06)
        Cd(f)    : 0.00209936
        Cd(r)    : 0.00209616
        Cs(f)    : 2.6222e-06
        Cs(r)    : -2.6222e-06
        Cl(f)    : -0.000516478
        Cl(r)    : -0.00203906
forces forces write:
    Sum of forces
        Total    : (0 0 0)
        Pressure : (0 0 0)
        Viscous  : (0 0 0)
    Sum of moments
        Total    : (0 0 0)
        Pressure : (0 0 0)
        Viscous  : (0 0 0)


Time = 5

smoothSolver:  Solving for Ux, Initial residual = 0.00380125, Final residual = 0.000359968, No Iterations 7
smoothSolver:  Solving for Uy, Initial residual = 0.131564, Final residual = 0.0128109, No Iterations 11
GAMG:  Solving for p, Initial residual = 0.00118225, Final residual = 8.73788e-05, No Iterations 5
time step continuity errors : sum local = 8.36697e-06, global = 2.03787e-06, cumulative = 1.23784e-05
smoothSolver:  Solving for omega, Initial residual = 0.127794, Final residual = 0.01035, No Iterations 7
smoothSolver:  Solving for k, Initial residual = 0.372451, Final residual = 0.0269897, No Iterations 6
ExecutionTime = 0.25 s  ClockTime = 0 s

forceCoeffs forceCoeffs execute:
    Coefficients
        Cd       : 0.00378856	(pressure: 0	viscous: 0.00378856)
        Cs       : 0	(pressure: 0	viscous: 0)
        Cl       : -0.00226011	(pressure: -0.00226113	viscous: 1.01782e-06)
        CmRoll       : 1.41257e-06	(pressure: 1.4132e-06	viscous: -6.36138e-10)
        CmPitch       : 0.000679986	(pressure: 0.000680059	viscous: -7.33924e-08)
        CmYaw       : 2.36785e-06	(pressure: 0	viscous: 2.36785e-06)
        Cd(f)    : 0.00189569
        Cd(r)    : 0.00189287
        Cs(f)    : 2.36785e-06
        Cs(r)    : -2.36785e-06
        Cl(f)    : -0.000450068
        Cl(r)    : -0.00181004
forces forces write:
    Sum of forces
        Total    : (0 0 0)
        Pressure : (0 0 0)
        Viscous  : (0 0 0)
    Sum of moments
        Total    : (0 0 0)
        Pressure : (0 0 0)
        Viscous  : (0 0 0)


Time = 6

smoothSolver:  Solving for Ux, Initial residual = 0.00284336, Final residual = 0.000269823, No Iterations 7
smoothSolver:  Solving for Uy, Initial residual = 0.10104, Final residual = 0.00974623, No Iterations 11
GAMG:  Solving for p, Initial residual = 0.00103497, Final residual = 5.71095e-05, No Iterations 7
time step continuity errors : sum local = 4.84354e-06, global = 1.65936e-06, cumulative = 1.40377e-05
smoothSolver:  Solving for omega, Initial residual = 0.100724, Final residual = 0.0100145, No Iterations 5
smoothSolver:  Solving for k, Initial residual = 0.356858, Final residual = 0.0299956, No Iterations 5
ExecutionTime = 0.28 s  ClockTime = 0 s

forceCoeffs forceCoeffs execute:
    Coefficients
        Cd       : 0.00358738	(pressure: 0	viscous: 0.00358738)
        Cs       : 0	(pressure: 0	viscous: 0)
        Cl       : -0.0020226	(pressure: -0.00202365	viscous: 1.05563e-06)
        CmRoll       : 1.26412e-06	(pressure: 1.26478e-06	viscous: -6.5977e-10)
        CmPitch       : 0.000622269	(pressure: 0.000622333	viscous: -6.44082e-08)
        CmYaw       : 2.24211e-06	(pressure: 0	viscous: 2.24211e-06)
        Cd(f)    : 0.00179495
        Cd(r)    : 0.00179243
        Cs(f)    : 2.24211e-06
        Cs(r)    : -2.24211e-06
        Cl(f)    : -0.000389029
        Cl(r)    : -0.00163357
forces forces write:
    Sum of forces
        Total    : (0 0 0)
        Pressure : (0 0 0)
        Viscous  : (0 0 0)
    Sum of moments
        Total    : (0 0 0)
        Pressure : (0 0 0)
        Viscous  : (0 0 0)


Time = 7

smoothSolver:  Solving for Ux, Initial residual = 0.00228824, Final residual = 0.000210704, No Iterations 7
smoothSolver:  Solving for Uy, Initial residual = 0.0822012, Final residual = 0.0079399, No Iterations 11
GAMG:  Solving for p, Initial residual = 0.000990986, Final residual = 9.46047e-05, No Iterations 5
time step continuity errors : sum local = 7.32387e-06, global = 2.96942e-06, cumulative = 1.70072e-05
smoothSolver:  Solving for omega, Initial residual = 0.0568482, Final residual = 0.00558467, No Iterations 5
smoothSolver:  Solving for k, Initial residual = 0.329099, Final residual = 0.0292433, No Iterations 4
ExecutionTime = 0.3 s  ClockTime = 0 s

forceCoeffs forceCoeffs execute:
    Coefficients
        Cd       : 0.0034388	(pressure: 0	viscous: 0.0034388)
        Cs       : 0	(pressure: 0	viscous: 0)
        Cl       : -0.00186736	(pressure: -0.00186843	viscous: 1.07577e-06)
        CmRoll       : 1.1671e-06	(pressure: 1.16777e-06	viscous: -6.72355e-10)
        CmPitch       : 0.000583733	(pressure: 0.000583791	viscous: -5.79758e-08)
        CmYaw       : 2.14925e-06	(pressure: 0	viscous: 2.14925e-06)
        Cd(f)    : 0.00172057
        Cd(r)    : 0.00171823
        Cs(f)    : 2.14925e-06
        Cs(r)    : -2.14925e-06
        Cl(f)    : -0.000349946
        Cl(r)    : -0.00151741
forces forces write:
    Sum of forces
        Total    : (0 0 0)
        Pressure : (0 0 0)
        Viscous  : (0 0 0)
    Sum of moments
        Total    : (0 0 0)
        Pressure : (0 0 0)
        Viscous  : (0 0 0)


Time = 8

smoothSolver:  Solving for Ux, Initial residual = 0.00193701, Final residual = 0.000177126, No Iterations 7
smoothSolver:  Solving for Uy, Initial residual = 0.0696734, Final residual = 0.00667016, No Iterations 11
GAMG:  Solving for p, Initial residual = 0.000936251, Final residual = 7.18893e-05, No Iterations 5
time step continuity errors : sum local = 5.14656e-06, global = 1.74125e-06, cumulative = 1.87484e-05
smoothSolver:  Solving for omega, Initial residual = 0.0488888, Final residual = 0.00365962, No Iterations 5
smoothSolver:  Solving for k, Initial residual = 0.272195, Final residual = 0.0227568, No Iterations 4
ExecutionTime = 0.31 s  ClockTime = 0 s

forceCoeffs forceCoeffs execute:
    Coefficients
        Cd       : 0.00336912	(pressure: 0	viscous: 0.00336912)
        Cs       : 0	(pressure: 0	viscous: 0)
        Cl       : -0.00174172	(pressure: -0.00174281	viscous: 1.0893e-06)
        CmRoll       : 1.08858e-06	(pressure: 1.08926e-06	viscous: -6.80813e-10)
        CmPitch       : 0.00054744	(pressure: 0.000547493	viscous: -5.27098e-08)
        CmYaw       : 2.1057e-06	(pressure: 0	viscous: 2.1057e-06)
        Cd(f)    : 0.00168565
        Cd(r)    : 0.00168347
        Cs(f)    : 2.1057e-06
        Cs(r)    : -2.1057e-06
        Cl(f)    : -0.00032342
        Cl(r)    : -0.0014183
forces forces write:
    Sum of forces
        Total    : (0 0 0)
        Pressure : (0 0 0)
        Viscous  : (0 0 0)
    Sum of moments
        Total    : (0 0 0)
        Pressure : (0 0 0)
        Viscous  : (0 0 0)


Time = 9

smoothSolver:  Solving for Ux, Initial residual = 0.00169721, Final residual = 0.000151163, No Iterations 7
smoothSolver:  Solving for Uy, Initial residual = 0.0608212, Final residual = 0.00586799, No Iterations 11
GAMG:  Solving for p, Initial residual = 0.000893998, Final residual = 8.39719e-05, No Iterations 5
time step continuity errors : sum local = 5.72311e-06, global = 1.35791e-06, cumulative = 2.01063e-05
smoothSolver:  Solving for omega, Initial residual = 0.0305675, Final residual = 0.00252998, No Iterations 5
smoothSolver:  Solving for k, Initial residual = 0.243428, Final residual = 0.0200961, No Iterations 4
ExecutionTime = 0.34 s  ClockTime = 0 s

forceCoeffs forceCoeffs execute:
    Coefficients
        Cd       : 0.00332372	(pressure: 0	viscous: 0.00332372)
        Cs       : 0	(pressure: 0	viscous: 0)
        Cl       : -0.00161599	(pressure: -0.00161709	viscous: 1.09884e-06)
        CmRoll       : 1.00999e-06	(pressure: 1.01068e-06	viscous: -6.86772e-10)
        CmPitch       : 0.000510046	(pressure: 0.000510093	viscous: -4.71967e-08)
        CmYaw       : 2.07732e-06	(pressure: 0	viscous: 2.07732e-06)
        Cd(f)    : 0.00166287
        Cd(r)    : 0.00166085
        Cs(f)    : 2.07732e-06
        Cs(r)    : -2.07732e-06
        Cl(f)    : -0.00029795
        Cl(r)    : -0.00131804
forces forces write:
    Sum of forces
        Total    : (0 0 0)
        Pressure : (0 0 0)
        Viscous  : (0 0 0)
    Sum of moments
        Total    : (0 0 0)
        Pressure : (0 0 0)
        Viscous  : (0 0 0)


Time = 10

smoothSolver:  Solving for Ux, Initial residual = 0.00156572, Final residual = 0.000132502, No Iterations 7
smoothSolver:  Solving for Uy, Initial residual = 0.0537199, Final residual = 0.00515834, No Iterations 11
GAMG:  Solving for p, Initial residual = 0.000941257, Final residual = 6.67016e-05, No Iterations 4
time step continuity errors : sum local = 4.25655e-06, global = 3.50909e-08, cumulative = 2.01414e-05
smoothSolver:  Solving for omega, Initial residual = 0.0240734, Final residual = 0.00175005, No Iterations 5
smoothSolver:  Solving for k, Initial residual = 0.189932, Final residual = 0.0162671, No Iterations 4
ExecutionTime = 0.36 s  ClockTime = 0 s

forceCoeffs forceCoeffs execute:
    Coefficients
        Cd       : 0.00330712	(pressure: 0	viscous: 0.00330712)
        Cs       : 0	(pressure: 0	viscous: 0)
        Cl       : -0.00156825	(pressure: -0.00156936	viscous: 1.10337e-06)
        CmRoll       : 9.80158e-07	(pressure: 9.80847e-07	viscous: -6.89604e-10)
        CmPitch       : 0.000494959	(pressure: 0.000495001	viscous: -4.2445e-08)
        CmYaw       : 2.06695e-06	(pressure: 0	viscous: 2.06695e-06)
        Cd(f)    : 0.00165454
        Cd(r)    : 0.00165258
        Cs(f)    : 2.06695e-06
        Cs(r)    : -2.06695e-06
        Cl(f)    : -0.000289167
        Cl(r)    : -0.00127909
forces forces write:
    Sum of forces
        Total    : (0 0 0)
        Pressure : (0 0 0)
        Viscous  : (0 0 0)
    Sum of moments
        Total    : (0 0 0)
        Pressure : (0 0 0)
        Viscous  : (0 0 0)


Time = 11

smoothSolver:  Solving for Ux, Initial residual = 0.00145642, Final residual = 0.000120373, No Iterations 7
smoothSolver:  Solving for Uy, Initial residual = 0.0492579, Final residual = 0.00477292, No Iterations 11
GAMG:  Solving for p, Initial residual = 0.000893864, Final residual = 5.38416e-05, No Iterations 5
time step continuity errors : sum local = 3.39088e-06, global = 7.71603e-07, cumulative = 2.0913e-05
smoothSolver:  Solving for omega, Initial residual = 0.0193337, Final residual = 0.00171741, No Iterations 4
smoothSolver:  Solving for k, Initial residual = 0.154779, Final residual = 0.0143714, No Iterations 4
ExecutionTime = 0.37 s  ClockTime = 0 s

forceCoeffs forceCoeffs execute:
    Coefficients
        Cd       : 0.00330384	(pressure: 0	viscous: 0.00330384)
        Cs       : 0	(pressure: 0	viscous: 0)
        Cl       : -0.00147779	(pressure: -0.0014789	viscous: 1.10862e-06)
        CmRoll       : 9.23618e-07	(pressure: 9.2431e-07	viscous: -6.92885e-10)
        CmPitch       : 0.000467519	(pressure: 0.000467556	viscous: -3.72113e-08)
        CmYaw       : 2.0649e-06	(pressure: 0	viscous: 2.0649e-06)
        Cd(f)    : 0.00165284
        Cd(r)    : 0.001651
        Cs(f)    : 2.0649e-06
        Cs(r)    : -2.0649e-06
        Cl(f)    : -0.000271375
        Cl(r)    : -0.00120641
forces forces write:
    Sum of forces
        Total    : (0 0 0)
        Pressure : (0 0 0)
        Viscous  : (0 0 0)
    Sum of moments
        Total    : (0 0 0)
        Pressure : (0 0 0)
        Viscous  : (0 0 0)


Time = 12

smoothSolver:  Solving for Ux, Initial residual = 0.00135397, Final residual = 0.000135043, No Iterations 6
smoothSolver:  Solving for Uy, Initial residual = 0.0448095, Final residual = 0.00434384, No Iterations 11
GAMG:  Solving for p, Initial residual = 0.00101478, Final residual = 5.60065e-05, No Iterations 3
time step continuity errors : sum local = 3.36322e-06, global = 1.10565e-07, cumulative = 2.10236e-05
smoothSolver:  Solving for omega, Initial residual = 0.0137052, Final residual = 0.00105673, No Iterations 5
smoothSolver:  Solving for k, Initial residual = 0.120608, Final residual = 0.011009, No Iterations 4
ExecutionTime = 0.39 s  ClockTime = 0 s

forceCoeffs forceCoeffs execute:
    Coefficients
        Cd       : 0.00330894	(pressure: 0	viscous: 0.00330894)
        Cs       : 0	(pressure: 0	viscous: 0)
        Cl       : -0.00146712	(pressure: -0.00146822	viscous: 1.10787e-06)
        CmRoll       : 9.16948e-07	(pressure: 9.1764e-07	viscous: -6.92416e-10)
        CmPitch       : 0.000463856	(pressure: 0.000463888	viscous: -3.29155e-08)
        CmYaw       : 2.06809e-06	(pressure: 0	viscous: 2.06809e-06)
        Cd(f)    : 0.00165539
        Cd(r)    : 0.00165355
        Cs(f)    : 2.06809e-06
        Cs(r)    : -2.06809e-06
        Cl(f)    : -0.000269703
        Cl(r)    : -0.00119741
forces forces write:
    Sum of forces
        Total    : (0 0 0)
        Pressure : (0 0 0)
        Viscous  : (0 0 0)
    Sum of moments
        Total    : (0 0 0)
        Pressure : (0 0 0)
        Viscous  : (0 0 0)


Time = 13

smoothSolver:  Solving for Ux, Initial residual = 0.00126494, Final residual = 0.000125964, No Iterations 6
smoothSolver:  Solving for Uy, Initial residual = 0.0421196, Final residual = 0.00411658, No Iterations 11
GAMG:  Solving for p, Initial residual = 0.00089928, Final residual = 5.82142e-05, No Iterations 3
time step continuity errors : sum local = 3.50351e-06, global = 7.5395e-08, cumulative = 2.1099e-05
smoothSolver:  Solving for omega, Initial residual = 0.0119746, Final residual = 0.00114818, No Iterations 4
smoothSolver:  Solving for k, Initial residual = 0.101703, Final residual = 0.00841377, No Iterations 4
ExecutionTime = 0.42 s  ClockTime = 0 s

forceCoeffs forceCoeffs execute:
    Coefficients
        Cd       : 0.00331692	(pressure: 0	viscous: 0.00331692)
        Cs       : 0	(pressure: 0	viscous: 0)
        Cl       : -0.0014611	(pressure: -0.00146221	viscous: 1.11141e-06)
        CmRoll       : 9.13187e-07	(pressure: 9.13881e-07	viscous: -6.9463e-10)
        CmPitch       : 0.000461383	(pressure: 0.000461412	viscous: -2.94675e-08)
        CmYaw       : 2.07307e-06	(pressure: 0	viscous: 2.07307e-06)
        Cd(f)    : 0.00165937
        Cd(r)    : 0.00165755
        Cs(f)    : 2.07307e-06
        Cs(r)    : -2.07307e-06
        Cl(f)    : -0.000269167
        Cl(r)    : -0.00119193
forces forces write:
    Sum of forces
        Total    : (0 0 0)
        Pressure : (0 0 0)
        Viscous  : (0 0 0)
    Sum of moments
        Total    : (0 0 0)
        Pressure : (0 0 0)
        Viscous  : (0 0 0)


Time = 14

smoothSolver:  Solving for Ux, Initial residual = 0.00118721, Final residual = 9.57215e-05, No Iterations 7
smoothSolver:  Solving for Uy, Initial residual = 0.0398006, Final residual = 0.00391901, No Iterations 11
GAMG:  Solving for p, Initial residual = 0.000858401, Final residual = 7.0233e-05, No Iterations 3
time step continuity errors : sum local = 4.2187e-06, global = -6.83757e-07, cumulative = 2.04152e-05
smoothSolver:  Solving for omega, Initial residual = 0.00916706, Final residual = 0.000694111, No Iterations 5
smoothSolver:  Solving for k, Initial residual = 0.0783427, Final residual = 0.00749433, No Iterations 4
ExecutionTime = 0.44 s  ClockTime = 0 s

forceCoeffs forceCoeffs execute:
    Coefficients
        Cd       : 0.00332392	(pressure: 0	viscous: 0.00332392)
        Cs       : 0	(pressure: 0	viscous: 0)
        Cl       : -0.0014446	(pressure: -0.00144571	viscous: 1.11e-06)
        CmRoll       : 9.02874e-07	(pressure: 9.03567e-07	viscous: -6.9375e-10)
        CmPitch       : 0.000454855	(pressure: 0.000454881	viscous: -2.67445e-08)
        CmYaw       : 2.07745e-06	(pressure: 0	viscous: 2.07745e-06)
        Cd(f)    : 0.00166286
        Cd(r)    : 0.00166106
        Cs(f)    : 2.07745e-06
        Cs(r)    : -2.07745e-06
        Cl(f)    : -0.000267444
        Cl(r)    : -0.00117715
forces forces write:
    Sum of forces
        Total    : (0 0 0)
        Pressure : (0 0 0)
        Viscous  : (0 0 0)
    Sum of moments
        Total    : (0 0 0)
        Pressure : (0 0 0)
        Viscous  : (0 0 0)


Time = 15

smoothSolver:  Solving for Ux, Initial residual = 0.00111336, Final residual = 9.07307e-05, No Iterations 7
smoothSolver:  Solving for Uy, Initial residual = 0.0376588, Final residual = 0.00372979, No Iterations 11
GAMG:  Solving for p, Initial residual = 0.000806203, Final residual = 7.08338e-05, No Iterations 3
time step continuity errors : sum local = 4.23772e-06, global = 3.00976e-08, cumulative = 2.04453e-05
smoothSolver:  Solving for omega, Initial residual = 0.00732932, Final residual = 0.000599419, No Iterations 5
smoothSolver:  Solving for k, Initial residual = 0.0641702, Final residual = 0.00447403, No Iterations 5
ExecutionTime = 0.45 s  ClockTime = 0 s

forceCoeffs forceCoeffs execute:
    Coefficients
        Cd       : 0.00332944	(pressure: 0	viscous: 0.00332944)
        Cs       : 0	(pressure: 0	viscous: 0)
        Cl       : -0.00143049	(pressure: -0.0014316	viscous: 1.11353e-06)
        CmRoll       : 8.94056e-07	(pressure: 8.94752e-07	viscous: -6.95954e-10)
        CmPitch       : 0.000449021	(pressure: 0.000449047	viscous: -2.53282e-08)
        CmYaw       : 2.0809e-06	(pressure: 0	viscous: 2.0809e-06)
        Cd(f)    : 0.00166561
        Cd(r)    : 0.00166383
        Cs(f)    : 2.0809e-06
        Cs(r)    : -2.0809e-06
        Cl(f)    : -0.000266223
        Cl(r)    : -0.00116427
forces forces write:
    Sum of forces
        Total    : (0 0 0)
        Pressure : (0 0 0)
        Viscous  : (0 0 0)
    Sum of moments
        Total    : (0 0 0)
        Pressure : (0 0 0)
        Viscous  : (0 0 0)


Time = 16

smoothSolver:  Solving for Ux, Initial residual = 0.00105066, Final residual = 8.67605e-05, No Iterations 7
smoothSolver:  Solving for Uy, Initial residual = 0.0357397, Final residual = 0.00355671, No Iterations 11
GAMG:  Solving for p, Initial residual = 0.000844739, Final residual = 7.42669e-05, No Iterations 3
time step continuity errors : sum local = 4.41673e-06, global = -5.6531e-07, cumulative = 1.988e-05
smoothSolver:  Solving for omega, Initial residual = 0.00625793, Final residual = 0.00048048, No Iterations 5
smoothSolver:  Solving for k, Initial residual = 0.0516453, Final residual = 0.00366607, No Iterations 5
ExecutionTime = 0.48 s  ClockTime = 0 s

forceCoeffs forceCoeffs execute:
    Coefficients
        Cd       : 0.00333101	(pressure: 0	viscous: 0.00333101)
        Cs       : 0	(pressure: 0	viscous: 0)
        Cl       : -0.00141216	(pressure: -0.00141328	viscous: 1.11524e-06)
        CmRoll       : 8.82601e-07	(pressure: 8.83298e-07	viscous: -6.97023e-10)
        CmPitch       : 0.000441297	(pressure: 0.000441322	viscous: -2.46266e-08)
        CmYaw       : 2.08188e-06	(pressure: 0	viscous: 2.08188e-06)
        Cd(f)    : 0.00166639
        Cd(r)    : 0.00166462
        Cs(f)    : 2.08188e-06
        Cs(r)    : -2.08188e-06
        Cl(f)    : -0.000264783
        Cl(r)    : -0.00114738
forces forces write:
    Sum of forces
        Total    : (0 0 0)
        Pressure : (0 0 0)
        Viscous  : (0 0 0)
    Sum of moments
        Total    : (0 0 0)
        Pressure : (0 0 0)
        Viscous  : (0 0 0)


Time = 17

smoothSolver:  Solving for Ux, Initial residual = 0.000985424, Final residual = 8.2087e-05, No Iterations 7
smoothSolver:  Solving for Uy, Initial residual = 0.0339855, Final residual = 0.00277187, No Iterations 12
GAMG:  Solving for p, Initial residual = 0.000743907, Final residual = 7.03381e-05, No Iterations 3
time step continuity errors : sum local = 4.15701e-06, global = 3.24798e-08, cumulative = 1.99125e-05
smoothSolver:  Solving for omega, Initial residual = 0.00514894, Final residual = 0.000435789, No Iterations 5
smoothSolver:  Solving for k, Initial residual = 0.0407335, Final residual = 0.00332408, No Iterations 5
ExecutionTime = 0.5 s  ClockTime = 0 s

forceCoeffs forceCoeffs execute:
    Coefficients
        Cd       : 0.00332954	(pressure: 0	viscous: 0.00332954)
        Cs       : 0	(pressure: 0	viscous: 0)
        Cl       : -0.00140149	(pressure: -0.00140261	viscous: 1.11744e-06)
        CmRoll       : 8.75933e-07	(pressure: 8.76631e-07	viscous: -6.984e-10)
        CmPitch       : 0.00043646	(pressure: 0.000436485	viscous: -2.44933e-08)
        CmYaw       : 2.08096e-06	(pressure: 0	viscous: 2.08096e-06)
        Cd(f)    : 0.00166565
        Cd(r)    : 0.00166389
        Cs(f)    : 2.08096e-06
        Cs(r)    : -2.08096e-06
        Cl(f)    : -0.000264286
        Cl(r)    : -0.00113721
forces forces write:
    Sum of forces
        Total    : (0 0 0)
        Pressure : (0 0 0)
        Viscous  : (0 0 0)
    Sum of moments
        Total    : (0 0 0)
        Pressure : (0 0 0)
        Viscous  : (0 0 0)


Time = 18

smoothSolver:  Solving for Ux, Initial residual = 0.000934745, Final residual = 7.93048e-05, No Iterations 7
smoothSolver:  Solving for Uy, Initial residual = 0.0324457, Final residual = 0.00266128, No Iterations 12
GAMG:  Solving for p, Initial residual = 0.000802822, Final residual = 6.97268e-05, No Iterations 3
time step continuity errors : sum local = 4.10359e-06, global = -5.64571e-07, cumulative = 1.93479e-05
smoothSolver:  Solving for omega, Initial residual = 0.00427973, Final residual = 0.000358331, No Iterations 5
smoothSolver:  Solving for k, Initial residual = 0.0356682, Final residual = 0.0031025, No Iterations 5
ExecutionTime = 0.51 s  ClockTime = 0 s

forceCoeffs forceCoeffs execute:
    Coefficients
        Cd       : 0.00332341	(pressure: 0	viscous: 0.00332341)
        Cs       : 0	(pressure: 0	viscous: 0)
        Cl       : -0.00138769	(pressure: -0.00138881	viscous: 1.12175e-06)
        CmRoll       : 8.67305e-07	(pressure: 8.68006e-07	viscous: -7.01093e-10)
        CmPitch       : 0.000430273	(pressure: 0.000430297	viscous: -2.43676e-08)
        CmYaw       : 2.07713e-06	(pressure: 0	viscous: 2.07713e-06)
        Cd(f)    : 0.00166257
        Cd(r)    : 0.00166084
        Cs(f)    : 2.07713e-06
        Cs(r)    : -2.07713e-06
        Cl(f)    : -0.000263571
        Cl(r)    : -0.00112412
forces forces write:
    Sum of forces
        Total    : (0 0 0)
        Pressure : (0 0 0)
        Viscous  : (0 0 0)
    Sum of moments
        Total    : (0 0 0)
        Pressure : (0 0 0)
        Viscous  : (0 0 0)


Time = 19

smoothSolver:  Solving for Ux, Initial residual = 0.000881902, Final residual = 7.52414e-05, No Iterations 7
smoothSolver:  Solving for Uy, Initial residual = 0.0310472, Final residual = 0.00255818, No Iterations 12
GAMG:  Solving for p, Initial residual = 0.000762808, Final residual = 7.34978e-05, No Iterations 3
time step continuity errors : sum local = 4.30083e-06, global = -7.45803e-08, cumulative = 1.92733e-05
smoothSolver:  Solving for omega, Initial residual = 0.00350095, Final residual = 0.000317343, No Iterations 5
smoothSolver:  Solving for k, Initial residual = 0.0291807, Final residual = 0.00261287, No Iterations 5
ExecutionTime = 0.55 s  ClockTime = 0 s

forceCoeffs forceCoeffs execute:
    Coefficients
        Cd       : 0.00331484	(pressure: 0	viscous: 0.00331484)
        Cs       : 0	(pressure: 0	viscous: 0)
        Cl       : -0.0013777	(pressure: -0.00137882	viscous: 1.12012e-06)
        CmRoll       : 8.61061e-07	(pressure: 8.61761e-07	viscous: -7.00075e-10)
        CmPitch       : 0.000425693	(pressure: 0.000425718	viscous: -2.46986e-08)
        CmYaw       : 2.07177e-06	(pressure: 0	viscous: 2.07177e-06)
        Cd(f)    : 0.00165828
        Cd(r)    : 0.00165656
        Cs(f)    : 2.07177e-06
        Cs(r)    : -2.07177e-06
        Cl(f)    : -0.000263156
        Cl(r)    : -0.00111454
forces forces write:
    Sum of forces
        Total    : (0 0 0)
        Pressure : (0 0 0)
        Viscous  : (0 0 0)
    Sum of moments
        Total    : (0 0 0)
        Pressure : (0 0 0)
        Viscous  : (0 0 0)


Time = 20

smoothSolver:  Solving for Ux, Initial residual = 0.00084571, Final residual = 7.32511e-05, No Iterations 7
smoothSolver:  Solving for Uy, Initial residual = 0.0297466, Final residual = 0.00246481, No Iterations 12
GAMG:  Solving for p, Initial residual = 0.00077035, Final residual = 6.84759e-05, No Iterations 3
time step continuity errors : sum local = 3.9933e-06, global = -5.96451e-07, cumulative = 1.86769e-05
smoothSolver:  Solving for omega, Initial residual = 0.00293303, Final residual = 0.000278476, No Iterations 5
smoothSolver:  Solving for k, Initial residual = 0.0253417, Final residual = 0.00236369, No Iterations 5
ExecutionTime = 0.56 s  ClockTime = 0 s

forceCoeffs forceCoeffs execute:
    Coefficients
        Cd       : 0.00330328	(pressure: 0	viscous: 0.00330328)
        Cs       : 0	(pressure: 0	viscous: 0)
        Cl       : -0.00136209	(pressure: -0.00136321	viscous: 1.12708e-06)
        CmRoll       : 8.51305e-07	(pressure: 8.52009e-07	viscous: -7.04428e-10)
        CmPitch       : 0.00041906	(pressure: 0.000419085	viscous: -2.50896e-08)
        CmYaw       : 2.06455e-06	(pressure: 0	viscous: 2.06455e-06)
        Cd(f)    : 0.00165249
        Cd(r)    : 0.00165079
        Cs(f)    : 2.06455e-06
        Cs(r)    : -2.06455e-06
        Cl(f)    : -0.000261984
        Cl(r)    : -0.0011001
forces forces write:
    Sum of forces
        Total    : (0 0 0)
        Pressure : (0 0 0)
        Viscous  : (0 0 0)
    Sum of moments
        Total    : (0 0 0)
        Pressure : (0 0 0)
        Viscous  : (0 0 0)


Time = 21

smoothSolver:  Solving for Ux, Initial residual = 0.000805279, Final residual = 6.94426e-05, No Iterations 7
smoothSolver:  Solving for Uy, Initial residual = 0.0285561, Final residual = 0.00237608, No Iterations 12
GAMG:  Solving for p, Initial residual = 0.000756362, Final residual = 7.10426e-05, No Iterations 3
time step continuity errors : sum local = 4.11324e-06, global = -1.47893e-08, cumulative = 1.86621e-05
smoothSolver:  Solving for omega, Initial residual = 0.00262054, Final residual = 0.000238679, No Iterations 5
smoothSolver:  Solving for k, Initial residual = 0.0219033, Final residual = 0.00211979, No Iterations 5
ExecutionTime = 0.58 s  ClockTime = 0 s

forceCoeffs forceCoeffs execute:
    Coefficients
        Cd       : 0.00329044	(pressure: 0	viscous: 0.00329044)
        Cs       : 0	(pressure: 0	viscous: 0)
        Cl       : -0.00134777	(pressure: -0.0013489	viscous: 1.12397e-06)
        CmRoll       : 8.42357e-07	(pressure: 8.4306e-07	viscous: -7.02482e-10)
        CmPitch       : 0.000413281	(pressure: 0.000413307	viscous: -2.57925e-08)
        CmYaw       : 2.05653e-06	(pressure: 0	viscous: 2.05653e-06)
        Cd(f)    : 0.00164606
        Cd(r)    : 0.00164438
        Cs(f)    : 2.05653e-06
        Cs(r)    : -2.05653e-06
        Cl(f)    : -0.000260604
        Cl(r)    : -0.00108717
forces forces write:
    Sum of forces
        Total    : (0 0 0)
        Pressure : (0 0 0)
        Viscous  : (0 0 0)
    Sum of moments
        Total    : (0 0 0)
        Pressure : (0 0 0)
        Viscous  : (0 0 0)


Time = 22

smoothSolver:  Solving for Ux, Initial residual = 0.000775215, Final residual = 6.79222e-05, No Iterations 7
smoothSolver:  Solving for Uy, Initial residual = 0.0274278, Final residual = 0.00229287, No Iterations 12
GAMG:  Solving for p, Initial residual = 0.000768843, Final residual = 7.15598e-05, No Iterations 3
time step continuity errors : sum local = 4.1195e-06, global = -5.63228e-07, cumulative = 1.80989e-05
smoothSolver:  Solving for omega, Initial residual = 0.00215536, Final residual = 0.000159777, No Iterations 6
smoothSolver:  Solving for k, Initial residual = 0.0193358, Final residual = 0.0018919, No Iterations 5
ExecutionTime = 0.61 s  ClockTime = 0 s

forceCoeffs forceCoeffs execute:
    Coefficients
        Cd       : 0.00327636	(pressure: 0	viscous: 0.00327636)
        Cs       : 0	(pressure: 0	viscous: 0)
        Cl       : -0.00132795	(pressure: -0.00132909	viscous: 1.13347e-06)
        CmRoll       : 8.29971e-07	(pressure: 8.30679e-07	viscous: -7.0842e-10)
        CmPitch       : 0.000405181	(pressure: 0.000405207	viscous: -2.64628e-08)
        CmYaw       : 2.04772e-06	(pressure: 0	viscous: 2.04772e-06)
        Cd(f)    : 0.00163901
        Cd(r)    : 0.00163735
        Cs(f)    : 2.04772e-06
        Cs(r)    : -2.04772e-06
        Cl(f)    : -0.000258796
        Cl(r)    : -0.00106916
forces forces write:
    Sum of forces
        Total    : (0 0 0)
        Pressure : (0 0 0)
        Viscous  : (0 0 0)
    Sum of moments
        Total    : (0 0 0)
        Pressure : (0 0 0)
        Viscous  : (0 0 0)


Time = 23

smoothSolver:  Solving for Ux, Initial residual = 0.000737691, Final residual = 6.42552e-05, No Iterations 7
smoothSolver:  Solving for Uy, Initial residual = 0.0263947, Final residual = 0.00221417, No Iterations 12
GAMG:  Solving for p, Initial residual = 0.000695623, Final residual = 6.35615e-05, No Iterations 4
time step continuity errors : sum local = 3.62123e-06, global = 3.46935e-07, cumulative = 1.84458e-05
smoothSolver:  Solving for omega, Initial residual = 0.00188726, Final residual = 0.000140763, No Iterations 6
smoothSolver:  Solving for k, Initial residual = 0.0166042, Final residual = 0.00125596, No Iterations 6
ExecutionTime = 0.62 s  ClockTime = 0 s

forceCoeffs forceCoeffs execute:
    Coefficients
        Cd       : 0.00326195	(pressure: 0	viscous: 0.00326195)
        Cs       : 0	(pressure: 0	viscous: 0)
        Cl       : -0.00130076	(pressure: -0.00130189	viscous: 1.13211e-06)
        CmRoll       : 8.12974e-07	(pressure: 8.13682e-07	viscous: -7.0757e-10)
        CmPitch       : 0.00039541	(pressure: 0.000395438	viscous: -2.7194e-08)
        CmYaw       : 2.03872e-06	(pressure: 0	viscous: 2.03872e-06)
        Cd(f)    : 0.00163179
        Cd(r)    : 0.00163016
        Cs(f)    : 2.03872e-06
        Cs(r)    : -2.03872e-06
        Cl(f)    : -0.000254969
        Cl(r)    : -0.00104579
forces forces write:
    Sum of forces
        Total    : (0 0 0)
        Pressure : (0 0 0)
        Viscous  : (0 0 0)
    Sum of moments
        Total    : (0 0 0)
        Pressure : (0 0 0)
        Viscous  : (0 0 0)


Time = 24

smoothSolver:  Solving for Ux, Initial residual = 0.000708735, Final residual = 6.25498e-05, No Iterations 7
smoothSolver:  Solving for Uy, Initial residual = 0.0253686, Final residual = 0.00213381, No Iterations 12
GAMG:  Solving for p, Initial residual = 0.000661736, Final residual = 6.46395e-05, No Iterations 3
time step continuity errors : sum local = 3.63102e-06, global = -5.30554e-07, cumulative = 1.79152e-05
smoothSolver:  Solving for omega, Initial residual = 0.00160481, Final residual = 0.000129045, No Iterations 6
smoothSolver:  Solving for k, Initial residual = 0.0152889, Final residual = 0.00113516, No Iterations 6
ExecutionTime = 0.64 s  ClockTime = 0 s

forceCoeffs forceCoeffs execute:
    Coefficients
        Cd       : 0.00324718	(pressure: 0	viscous: 0.00324718)
        Cs       : 0	(pressure: 0	viscous: 0)
        Cl       : -0.00129122	(pressure: -0.00129235	viscous: 1.13272e-06)
        CmRoll       : 8.07013e-07	(pressure: 8.07721e-07	viscous: -7.07951e-10)
        CmPitch       : 0.000390212	(pressure: 0.00039024	viscous: -2.76934e-08)
        CmYaw       : 2.02948e-06	(pressure: 0	viscous: 2.02948e-06)
        Cd(f)    : 0.00162439
        Cd(r)    : 0.00162278
        Cs(f)    : 2.02948e-06
        Cs(r)    : -2.02948e-06
        Cl(f)    : -0.000255398
        Cl(r)    : -0.00103582
forces forces write:
    Sum of forces
        Total    : (0 0 0)
        Pressure : (0 0 0)
        Viscous  : (0 0 0)
    Sum of moments
        Total    : (0 0 0)
        Pressure : (0 0 0)
        Viscous  : (0 0 0)


Time = 25

smoothSolver:  Solving for Ux, Initial residual = 0.000679938, Final residual = 6.00376e-05, No Iterations 7
smoothSolver:  Solving for Uy, Initial residual = 0.0244932, Final residual = 0.002066, No Iterations 12
GAMG:  Solving for p, Initial residual = 0.000628512, Final residual = 4.84163e-05, No Iterations 4
time step continuity errors : sum local = 2.71538e-06, global = 9.93798e-07, cumulative = 1.8909e-05
smoothSolver:  Solving for omega, Initial residual = 0.0014549, Final residual = 0.000109216, No Iterations 6
smoothSolver:  Solving for k, Initial residual = 0.0138897, Final residual = 0.00106159, No Iterations 6
ExecutionTime = 0.67 s  ClockTime = 0 s

forceCoeffs forceCoeffs execute:
    Coefficients
        Cd       : 0.00323291	(pressure: 0	viscous: 0.00323291)
        Cs       : 0	(pressure: 0	viscous: 0)
        Cl       : -0.00127352	(pressure: -0.00127466	viscous: 1.1389e-06)
        CmRoll       : 7.95951e-07	(pressure: 7.96663e-07	viscous: -7.11811e-10)
        CmPitch       : 0.000382874	(pressure: 0.000382902	viscous: -2.82291e-08)
        CmYaw       : 2.02057e-06	(pressure: 0	viscous: 2.02057e-06)
        Cd(f)    : 0.00161725
        Cd(r)    : 0.00161566
        Cs(f)    : 2.02057e-06
        Cs(r)    : -2.02057e-06
        Cl(f)    : -0.000253887
        Cl(r)    : -0.00101964
forces forces write:
    Sum of forces
        Total    : (0 0 0)
        Pressure : (0 0 0)
        Viscous  : (0 0 0)
    Sum of moments
        Total    : (0 0 0)
        Pressure : (0 0 0)
        Viscous  : (0 0 0)


Time = 26

smoothSolver:  Solving for Ux, Initial residual = 0.000657057, Final residual = 5.89233e-05, No Iterations 7
smoothSolver:  Solving for Uy, Initial residual = 0.023712, Final residual = 0.00200594, No Iterations 12
GAMG:  Solving for p, Initial residual = 0.000597277, Final residual = 5.22779e-05, No Iterations 4
time step continuity errors : sum local = 2.90319e-06, global = 8.28221e-07, cumulative = 1.97373e-05
smoothSolver:  Solving for omega, Initial residual = 0.00126009, Final residual = 0.000102062, No Iterations 6
smoothSolver:  Solving for k, Initial residual = 0.0125144, Final residual = 0.000935714, No Iterations 6
ExecutionTime = 0.69 s  ClockTime = 0 s

forceCoeffs forceCoeffs execute:
    Coefficients
        Cd       : 0.00321906	(pressure: 0	viscous: 0.00321906)
        Cs       : 0	(pressure: 0	viscous: 0)
        Cl       : -0.00125664	(pressure: -0.00125779	viscous: 1.14484e-06)
        CmRoll       : 7.85401e-07	(pressure: 7.86117e-07	viscous: -7.15525e-10)
        CmPitch       : 0.00037559	(pressure: 0.000375618	viscous: -2.87066e-08)
        CmYaw       : 2.01191e-06	(pressure: 0	viscous: 2.01191e-06)
        Cd(f)    : 0.00161032
        Cd(r)    : 0.00160874
        Cs(f)    : 2.01191e-06
        Cs(r)    : -2.01191e-06
        Cl(f)    : -0.000252731
        Cl(r)    : -0.00100391
forces forces write:
    Sum of forces
        Total    : (0 0 0)
        Pressure : (0 0 0)
        Viscous  : (0 0 0)
    Sum of moments
        Total    : (0 0 0)
        Pressure : (0 0 0)
        Viscous  : (0 0 0)


Time = 27

smoothSolver:  Solving for Ux, Initial residual = 0.000628811, Final residual = 5.59236e-05, No Iterations 7
smoothSolver:  Solving for Uy, Initial residual = 0.0229171, Final residual = 0.00194333, No Iterations 12
GAMG:  Solving for p, Initial residual = 0.000617008, Final residual = 5.73577e-05, No Iterations 4
time step continuity errors : sum local = 3.16274e-06, global = 8.84715e-07, cumulative = 2.0622e-05
smoothSolver:  Solving for omega, Initial residual = 0.0011298, Final residual = 8.97285e-05, No Iterations 6
smoothSolver:  Solving for k, Initial residual = 0.0113272, Final residual = 0.000963765, No Iterations 6
ExecutionTime = 0.7 s  ClockTime = 0 s

forceCoeffs forceCoeffs execute:
    Coefficients
        Cd       : 0.00320558	(pressure: 0	viscous: 0.00320558)
        Cs       : 0	(pressure: 0	viscous: 0)
        Cl       : -0.00124153	(pressure: -0.00124269	viscous: 1.15393e-06)
        CmRoll       : 7.75959e-07	(pressure: 7.7668e-07	viscous: -7.21205e-10)
        CmPitch       : 0.000369343	(pressure: 0.000369372	viscous: -2.92355e-08)
        CmYaw       : 2.00348e-06	(pressure: 0	viscous: 2.00348e-06)
        Cd(f)    : 0.00160356
        Cd(r)    : 0.00160201
        Cs(f)    : 2.00348e-06
        Cs(r)    : -2.00348e-06
        Cl(f)    : -0.000251424
        Cl(r)    : -0.00099011
forces forces write:
    Sum of forces
        Total    : (0 0 0)
        Pressure : (0 0 0)
        Viscous  : (0 0 0)
    Sum of moments
        Total    : (0 0 0)
        Pressure : (0 0 0)
        Viscous  : (0 0 0)


Time = 28

smoothSolver:  Solving for Ux, Initial residual = 0.000610235, Final residual = 5.53576e-05, No Iterations 7
smoothSolver:  Solving for Uy, Initial residual = 0.0222582, Final residual = 0.00189086, No Iterations 12
GAMG:  Solving for p, Initial residual = 0.000565186, Final residual = 5.26969e-05, No Iterations 4
time step continuity errors : sum local = 2.88112e-06, global = 6.83977e-07, cumulative = 2.1306e-05
smoothSolver:  Solving for omega, Initial residual = 0.00097376, Final residual = 8.52192e-05, No Iterations 6
smoothSolver:  Solving for k, Initial residual = 0.0101982, Final residual = 0.000878716, No Iterations 6
ExecutionTime = 0.73 s  ClockTime = 0 s

forceCoeffs forceCoeffs execute:
    Coefficients
        Cd       : 0.0031929	(pressure: 0	viscous: 0.0031929)
        Cs       : 0	(pressure: 0	viscous: 0)
        Cl       : -0.00122594	(pressure: -0.0012271	viscous: 1.16046e-06)
        CmRoll       : 7.66212e-07	(pressure: 7.66937e-07	viscous: -7.25288e-10)
        CmPitch       : 0.000362339	(pressure: 0.000362369	viscous: -2.98567e-08)
        CmYaw       : 1.99557e-06	(pressure: 0	viscous: 1.99557e-06)
        Cd(f)    : 0.00159722
        Cd(r)    : 0.00159569
        Cs(f)    : 1.99557e-06
        Cs(r)    : -1.99557e-06
        Cl(f)    : -0.000250631
        Cl(r)    : -0.000975308
forces forces write:
    Sum of forces
        Total    : (0 0 0)
        Pressure : (0 0 0)
        Viscous  : (0 0 0)
    Sum of moments
        Total    : (0 0 0)
        Pressure : (0 0 0)
        Viscous  : (0 0 0)


Time = 29

smoothSolver:  Solving for Ux, Initial residual = 0.000584643, Final residual = 5.25275e-05, No Iterations 7
smoothSolver:  Solving for Uy, Initial residual = 0.0215565, Final residual = 0.00183555, No Iterations 12
GAMG:  Solving for p, Initial residual = 0.000598936, Final residual = 3.88525e-05, No Iterations 5
time step continuity errors : sum local = 2.10995e-06, global = -1.08746e-07, cumulative = 2.11972e-05
smoothSolver:  Solving for omega, Initial residual = 0.000835504, Final residual = 8.0104e-05, No Iterations 6
smoothSolver:  Solving for k, Initial residual = 0.00947348, Final residual = 0.000734632, No Iterations 6
ExecutionTime = 0.75 s  ClockTime = 0 s

forceCoeffs forceCoeffs execute:
    Coefficients
        Cd       : 0.00318019	(pressure: 0	viscous: 0.00318019)
        Cs       : 0	(pressure: 0	viscous: 0)
        Cl       : -0.00121178	(pressure: -0.00121295	viscous: 1.16653e-06)
        CmRoll       : 7.57364e-07	(pressure: 7.58094e-07	viscous: -7.29083e-10)
        CmPitch       : 0.000355369	(pressure: 0.000355399	viscous: -3.03118e-08)
        CmYaw       : 1.98762e-06	(pressure: 0	viscous: 1.98762e-06)
        Cd(f)    : 0.00159085
        Cd(r)    : 0.00158934
        Cs(f)    : 1.98762e-06
        Cs(r)    : -1.98762e-06
        Cl(f)    : -0.000250523
        Cl(r)    : -0.00096126
forces forces write:
    Sum of forces
        Total    : (0 0 0)
        Pressure : (0 0 0)
        Viscous  : (0 0 0)
    Sum of moments
        Total    : (0 0 0)
        Pressure : (0 0 0)
        Viscous  : (0 0 0)


Time = 30

smoothSolver:  Solving for Ux, Initial residual = 0.000570374, Final residual = 5.25372e-05, No Iterations 7
smoothSolver:  Solving for Uy, Initial residual = 0.0209809, Final residual = 0.00178817, No Iterations 12
GAMG:  Solving for p, Initial residual = 0.000551915, Final residual = 3.79987e-05, No Iterations 5
time step continuity errors : sum local = 2.05327e-06, global = -3.24519e-07, cumulative = 2.08727e-05
smoothSolver:  Solving for omega, Initial residual = 0.000755878, Final residual = 7.18035e-05, No Iterations 6
smoothSolver:  Solving for k, Initial residual = 0.00840095, Final residual = 0.000768534, No Iterations 6
ExecutionTime = 0.76 s  ClockTime = 0 s

forceCoeffs forceCoeffs execute:
    Coefficients
        Cd       : 0.00316854	(pressure: 0	viscous: 0.00316854)
        Cs       : 0	(pressure: 0	viscous: 0)
        Cl       : -0.00119917	(pressure: -0.00120035	viscous: 1.1745e-06)
        CmRoll       : 7.49483e-07	(pressure: 7.50217e-07	viscous: -7.34065e-10)
        CmPitch       : 0.000348368	(pressure: 0.000348399	viscous: -3.08543e-08)
        CmYaw       : 1.98034e-06	(pressure: 0	viscous: 1.98034e-06)
        Cd(f)    : 0.00158502
        Cd(r)    : 0.00158352
        Cs(f)    : 1.98034e-06
        Cs(r)    : -1.98034e-06
        Cl(f)    : -0.000251218
        Cl(r)    : -0.000947954
forces forces write:
    Sum of forces
        Total    : (0 0 0)
        Pressure : (0 0 0)
        Viscous  : (0 0 0)
    Sum of moments
        Total    : (0 0 0)
        Pressure : (0 0 0)
        Viscous  : (0 0 0)


Time = 31

smoothSolver:  Solving for Ux, Initial residual = 0.000546386, Final residual = 4.98012e-05, No Iterations 7
smoothSolver:  Solving for Uy, Initial residual = 0.0203688, Final residual = 0.00174003, No Iterations 12
GAMG:  Solving for p, Initial residual = 0.000581782, Final residual = 5.60751e-05, No Iterations 4
time step continuity errors : sum local = 3.01941e-06, global = 3.93494e-07, cumulative = 2.12662e-05
smoothSolver:  Solving for omega, Initial residual = 0.000660714, Final residual = 5.24618e-05, No Iterations 7
smoothSolver:  Solving for k, Initial residual = 0.00751585, Final residual = 0.000691291, No Iterations 6
ExecutionTime = 0.8 s  ClockTime = 0 s

forceCoeffs forceCoeffs execute:
    Coefficients
        Cd       : 0.00315663	(pressure: 0	viscous: 0.00315663)
        Cs       : 0	(pressure: 0	viscous: 0)
        Cl       : -0.00119403	(pressure: -0.00119522	viscous: 1.18087e-06)
        CmRoll       : 7.46271e-07	(pressure: 7.4701e-07	viscous: -7.38046e-10)
        CmPitch       : 0.000344932	(pressure: 0.000344963	viscous: -3.12002e-08)
        CmYaw       : 1.97289e-06	(pressure: 0	viscous: 1.97289e-06)
        Cd(f)    : 0.00157906
        Cd(r)    : 0.00157757
        Cs(f)    : 1.97289e-06
        Cs(r)    : -1.97289e-06
        Cl(f)    : -0.000252085
        Cl(r)    : -0.000941949
forces forces write:
    Sum of forces
        Total    : (0 0 0)
        Pressure : (0 0 0)
        Viscous  : (0 0 0)
    Sum of moments
        Total    : (0 0 0)
        Pressure : (0 0 0)
        Viscous  : (0 0 0)


Time = 32

smoothSolver:  Solving for Ux, Initial residual = 0.000535147, Final residual = 5.01795e-05, No Iterations 7
smoothSolver:  Solving for Uy, Initial residual = 0.019876, Final residual = 0.00170013, No Iterations 12
GAMG:  Solving for p, Initial residual = 0.00052684, Final residual = 5.16406e-05, No Iterations 4
time step continuity errors : sum local = 2.77961e-06, global = 6.42571e-07, cumulative = 2.19088e-05
smoothSolver:  Solving for omega, Initial residual = 0.000551241, Final residual = 4.86573e-05, No Iterations 7
smoothSolver:  Solving for k, Initial residual = 0.00688372, Final residual = 0.000652566, No Iterations 6
ExecutionTime = 0.81 s  ClockTime = 0 s

forceCoeffs forceCoeffs execute:
    Coefficients
        Cd       : 0.00314576	(pressure: 0	viscous: 0.00314576)
        Cs       : 0	(pressure: 0	viscous: 0)
        Cl       : -0.00118266	(pressure: -0.00118385	viscous: 1.18967e-06)
        CmRoll       : 7.39164e-07	(pressure: 7.39907e-07	viscous: -7.43544e-10)
        CmPitch       : 0.00033925	(pressure: 0.000339282	viscous: -3.16454e-08)
        CmYaw       : 1.9661e-06	(pressure: 0	viscous: 1.9661e-06)
        Cd(f)    : 0.00157362
        Cd(r)    : 0.00157214
        Cs(f)    : 1.9661e-06
        Cs(r)    : -1.9661e-06
        Cl(f)    : -0.000252081
        Cl(r)    : -0.000930581
forces forces write:
    Sum of forces
        Total    : (0 0 0)
        Pressure : (0 0 0)
        Viscous  : (0 0 0)
    Sum of moments
        Total    : (0 0 0)
        Pressure : (0 0 0)
        Viscous  : (0 0 0)


Time = 33

smoothSolver:  Solving for Ux, Initial residual = 0.000513119, Final residual = 4.75355e-05, No Iterations 7
smoothSolver:  Solving for Uy, Initial residual = 0.0193526, Final residual = 0.00165931, No Iterations 12
GAMG:  Solving for p, Initial residual = 0.000561241, Final residual = 5.09859e-05, No Iterations 4
time step continuity errors : sum local = 2.73036e-06, global = 4.43759e-07, cumulative = 2.23525e-05
smoothSolver:  Solving for omega, Initial residual = 0.000511053, Final residual = 4.45102e-05, No Iterations 7
smoothSolver:  Solving for k, Initial residual = 0.00633928, Final residual = 0.00058613, No Iterations 6
ExecutionTime = 0.83 s  ClockTime = 0 s

forceCoeffs forceCoeffs execute:
    Coefficients
        Cd       : 0.00313468	(pressure: 0	viscous: 0.00313468)
        Cs       : 0	(pressure: 0	viscous: 0)
        Cl       : -0.0011818	(pressure: -0.00118299	viscous: 1.19702e-06)
        CmRoll       : 7.38622e-07	(pressure: 7.39371e-07	viscous: -7.48137e-10)
        CmPitch       : 0.000336618	(pressure: 0.00033665	viscous: -3.1866e-08)
        CmYaw       : 1.95918e-06	(pressure: 0	viscous: 1.95918e-06)
        Cd(f)    : 0.00156808
        Cd(r)    : 0.0015666
        Cs(f)    : 1.95918e-06
        Cs(r)    : -1.95918e-06
        Cl(f)    : -0.00025428
        Cl(r)    : -0.000927516
forces forces write:
    Sum of forces
        Total    : (0 0 0)
        Pressure : (0 0 0)
        Viscous  : (0 0 0)
    Sum of moments
        Total    : (0 0 0)
        Pressure : (0 0 0)
        Viscous  : (0 0 0)


Time = 34

smoothSolver:  Solving for Ux, Initial residual = 0.000504574, Final residual = 4.83196e-05, No Iterations 7
smoothSolver:  Solving for Uy, Initial residual = 0.0189029, Final residual = 0.00162269, No Iterations 12
GAMG:  Solving for p, Initial residual = 0.000502601, Final residual = 3.88554e-05, No Iterations 5
time step continuity errors : sum local = 2.09253e-06, global = -4.21913e-07, cumulative = 2.19306e-05
smoothSolver:  Solving for omega, Initial residual = 0.000439558, Final residual = 4.12835e-05, No Iterations 7
smoothSolver:  Solving for k, Initial residual = 0.00579997, Final residual = 0.000574006, No Iterations 6
ExecutionTime = 0.86 s  ClockTime = 1 s

forceCoeffs forceCoeffs execute:
    Coefficients
        Cd       : 0.00312443	(pressure: 0	viscous: 0.00312443)
        Cs       : 0	(pressure: 0	viscous: 0)
        Cl       : -0.00116809	(pressure: -0.0011693	viscous: 1.20418e-06)
        CmRoll       : 7.30058e-07	(pressure: 7.30811e-07	viscous: -7.52615e-10)
        CmPitch       : 0.000329021	(pressure: 0.000329053	viscous: -3.21855e-08)
        CmYaw       : 1.95277e-06	(pressure: 0	viscous: 1.95277e-06)
        Cd(f)    : 0.00156294
        Cd(r)    : 0.00156148
        Cs(f)    : 1.95277e-06
        Cs(r)    : -1.95277e-06
        Cl(f)    : -0.000255026
        Cl(r)    : -0.000913068
forces forces write:
    Sum of forces
        Total    : (0 0 0)
        Pressure : (0 0 0)
        Viscous  : (0 0 0)
    Sum of moments
        Total    : (0 0 0)
        Pressure : (0 0 0)
        Viscous  : (0 0 0)


Time = 35

smoothSolver:  Solving for Ux, Initial residual = 0.000483279, Final residual = 4.56186e-05, No Iterations 7
smoothSolver:  Solving for Uy, Initial residual = 0.0184649, Final residual = 0.00158812, No Iterations 12
GAMG:  Solving for p, Initial residual = 0.000483871, Final residual = 4.79292e-05, No Iterations 4
time step continuity errors : sum local = 2.56473e-06, global = 2.55354e-07, cumulative = 2.2186e-05
smoothSolver:  Solving for omega, Initial residual = 0.000395462, Final residual = 3.92966e-05, No Iterations 7
smoothSolver:  Solving for k, Initial residual = 0.00528944, Final residual = 0.000394648, No Iterations 7
ExecutionTime = 0.87 s  ClockTime = 1 s

forceCoeffs forceCoeffs execute:
    Coefficients
        Cd       : 0.00311405	(pressure: 0	viscous: 0.00311405)
        Cs       : 0	(pressure: 0	viscous: 0)
        Cl       : -0.00117313	(pressure: -0.00117433	viscous: 1.20826e-06)
        CmRoll       : 7.33204e-07	(pressure: 7.33959e-07	viscous: -7.55165e-10)
        CmPitch       : 0.000328441	(pressure: 0.000328473	viscous: -3.23886e-08)
        CmYaw       : 1.94628e-06	(pressure: 0	viscous: 1.94628e-06)
        Cd(f)    : 0.00155776
        Cd(r)    : 0.00155629
        Cs(f)    : 1.94628e-06
        Cs(r)    : -1.94628e-06
        Cl(f)    : -0.000258122
        Cl(r)    : -0.000915004
forces forces write:
    Sum of forces
        Total    : (0 0 0)
        Pressure : (0 0 0)
        Viscous  : (0 0 0)
    Sum of moments
        Total    : (0 0 0)
        Pressure : (0 0 0)
        Viscous  : (0 0 0)


Time = 36

smoothSolver:  Solving for Ux, Initial residual = 0.000478007, Final residual = 4.69779e-05, No Iterations 7
smoothSolver:  Solving for Uy, Initial residual = 0.0180452, Final residual = 0.00155533, No Iterations 12
GAMG:  Solving for p, Initial residual = 0.000475562, Final residual = 3.5559e-05, No Iterations 5
time step continuity errors : sum local = 1.92309e-06, global = -3.75228e-07, cumulative = 2.18107e-05
smoothSolver:  Solving for omega, Initial residual = 0.000349795, Final residual = 2.91357e-05, No Iterations 8
smoothSolver:  Solving for k, Initial residual = 0.0048238, Final residual = 0.000373814, No Iterations 7
ExecutionTime = 0.91 s  ClockTime = 1 s

forceCoeffs forceCoeffs execute:
    Coefficients
        Cd       : 0.00310419	(pressure: 0	viscous: 0.00310419)
        Cs       : 0	(pressure: 0	viscous: 0)
        Cl       : -0.00115453	(pressure: -0.00115574	viscous: 1.21308e-06)
        CmRoll       : 7.21579e-07	(pressure: 7.22338e-07	viscous: -7.58173e-10)
        CmPitch       : 0.000319895	(pressure: 0.000319927	viscous: -3.2677e-08)
        CmYaw       : 1.94012e-06	(pressure: 0	viscous: 1.94012e-06)
        Cd(f)    : 0.00155282
        Cd(r)    : 0.00155137
        Cs(f)    : 1.94012e-06
        Cs(r)    : -1.94012e-06
        Cl(f)    : -0.000257369
        Cl(r)    : -0.000897158
forces forces write:
    Sum of forces
        Total    : (0 0 0)
        Pressure : (0 0 0)
        Viscous  : (0 0 0)
    Sum of moments
        Total    : (0 0 0)
        Pressure : (0 0 0)
        Viscous  : (0 0 0)


Time = 37

smoothSolver:  Solving for Ux, Initial residual = 0.000456187, Final residual = 4.39171e-05, No Iterations 7
smoothSolver:  Solving for Uy, Initial residual = 0.0176928, Final residual = 0.00152677, No Iterations 12
GAMG:  Solving for p, Initial residual = 0.000461203, Final residual = 4.56822e-05, No Iterations 4
time step continuity errors : sum local = 2.43805e-06, global = 1.23876e-07, cumulative = 2.19346e-05
smoothSolver:  Solving for omega, Initial residual = 0.000320102, Final residual = 2.75995e-05, No Iterations 8
smoothSolver:  Solving for k, Initial residual = 0.00434188, Final residual = 0.000330189, No Iterations 7
ExecutionTime = 0.92 s  ClockTime = 1 s

forceCoeffs forceCoeffs execute:
    Coefficients
        Cd       : 0.00309457	(pressure: 0	viscous: 0.00309457)
        Cs       : 0	(pressure: 0	viscous: 0)
        Cl       : -0.00116488	(pressure: -0.0011661	viscous: 1.21684e-06)
        CmRoll       : 7.28052e-07	(pressure: 7.28812e-07	viscous: -7.60525e-10)
        CmPitch       : 0.000320915	(pressure: 0.000320948	viscous: -3.29469e-08)
        CmYaw       : 1.93411e-06	(pressure: 0	viscous: 1.93411e-06)
        Cd(f)    : 0.00154801
        Cd(r)    : 0.00154656
        Cs(f)    : 1.93411e-06
        Cs(r)    : -1.93411e-06
        Cl(f)    : -0.000261527
        Cl(r)    : -0.000903356
forces forces write:
    Sum of forces
        Total    : (0 0 0)
        Pressure : (0 0 0)
        Viscous  : (0 0 0)
    Sum of moments
        Total    : (0 0 0)
        Pressure : (0 0 0)
        Viscous  : (0 0 0)


Time = 38

smoothSolver:  Solving for Ux, Initial residual = 0.000453972, Final residual = 3.69905e-05, No Iterations 8
smoothSolver:  Solving for Uy, Initial residual = 0.0173033, Final residual = 0.00149721, No Iterations 12
GAMG:  Solving for p, Initial residual = 0.000462027, Final residual = 3.61223e-05, No Iterations 4
time step continuity errors : sum local = 1.96053e-06, global = 6.21617e-07, cumulative = 2.25562e-05
smoothSolver:  Solving for omega, Initial residual = 0.000293885, Final residual = 2.6549e-05, No Iterations 8
smoothSolver:  Solving for k, Initial residual = 0.00403074, Final residual = 0.000315399, No Iterations 7
ExecutionTime = 0.94 s  ClockTime = 1 s

forceCoeffs forceCoeffs execute:
    Coefficients
        Cd       : 0.00308503	(pressure: 0	viscous: 0.00308503)
        Cs       : 0	(pressure: 0	viscous: 0)
        Cl       : -0.00114565	(pressure: -0.00114687	viscous: 1.21946e-06)
        CmRoll       : 7.16033e-07	(pressure: 7.16796e-07	viscous: -7.6216e-10)
        CmPitch       : 0.000313728	(pressure: 0.000313762	viscous: -3.32226e-08)
        CmYaw       : 1.92815e-06	(pressure: 0	viscous: 1.92815e-06)
        Cd(f)    : 0.00154323
        Cd(r)    : 0.0015418
        Cs(f)    : 1.92815e-06
        Cs(r)    : -1.92815e-06
        Cl(f)    : -0.000259098
        Cl(r)    : -0.000886555
forces forces write:
    Sum of forces
        Total    : (0 0 0)
        Pressure : (0 0 0)
        Viscous  : (0 0 0)
    Sum of moments
        Total    : (0 0 0)
        Pressure : (0 0 0)
        Viscous  : (0 0 0)


Time = 39

smoothSolver:  Solving for Ux, Initial residual = 0.000428939, Final residual = 4.18224e-05, No Iterations 7
smoothSolver:  Solving for Uy, Initial residual = 0.0168576, Final residual = 0.00146049, No Iterations 12
GAMG:  Solving for p, Initial residual = 0.000427295, Final residual = 3.81548e-05, No Iterations 5
time step continuity errors : sum local = 2.03408e-06, global = -4.28673e-07, cumulative = 2.21275e-05
smoothSolver:  Solving for omega, Initial residual = 0.000274932, Final residual = 2.54157e-05, No Iterations 8
smoothSolver:  Solving for k, Initial residual = 0.00354558, Final residual = 0.000296955, No Iterations 7
ExecutionTime = 0.97 s  ClockTime = 1 s

forceCoeffs forceCoeffs execute:
    Coefficients
        Cd       : 0.00307611	(pressure: 0	viscous: 0.00307611)
        Cs       : 0	(pressure: 0	viscous: 0)
        Cl       : -0.00115775	(pressure: -0.00115898	viscous: 1.22278e-06)
        CmRoll       : 7.23595e-07	(pressure: 7.2436e-07	viscous: -7.64237e-10)
        CmPitch       : 0.000313675	(pressure: 0.000313709	viscous: -3.35074e-08)
        CmYaw       : 1.92257e-06	(pressure: 0	viscous: 1.92257e-06)
        Cd(f)    : 0.00153878
        Cd(r)    : 0.00153733
        Cs(f)    : 1.92257e-06
        Cs(r)    : -1.92257e-06
        Cl(f)    : -0.000265201
        Cl(r)    : -0.000892551
forces forces write:
    Sum of forces
        Total    : (0 0 0)
        Pressure : (0 0 0)
        Viscous  : (0 0 0)
    Sum of moments
        Total    : (0 0 0)
        Pressure : (0 0 0)
        Viscous  : (0 0 0)


Time = 40

smoothSolver:  Solving for Ux, Initial residual = 0.000426868, Final residual = 3.50651e-05, No Iterations 8
smoothSolver:  Solving for Uy, Initial residual = 0.0164498, Final residual = 0.00142913, No Iterations 12
GAMG:  Solving for p, Initial residual = 0.000414654, Final residual = 3.28118e-05, No Iterations 4
time step continuity errors : sum local = 1.78842e-06, global = 5.47617e-07, cumulative = 2.26752e-05
smoothSolver:  Solving for omega, Initial residual = 0.000262098, Final residual = 2.43132e-05, No Iterations 8
smoothSolver:  Solving for k, Initial residual = 0.00329104, Final residual = 0.000276745, No Iterations 7
ExecutionTime = 0.98 s  ClockTime = 1 s

forceCoeffs forceCoeffs execute:
    Coefficients
        Cd       : 0.00306694	(pressure: 0	viscous: 0.00306694)
        Cs       : 0	(pressure: 0	viscous: 0)
        Cl       : -0.00113974	(pressure: -0.00114096	viscous: 1.2247e-06)
        CmRoll       : 7.12336e-07	(pressure: 7.13102e-07	viscous: -7.65438e-10)
        CmPitch       : 0.000306687	(pressure: 0.000306721	viscous: -3.37039e-08)
        CmYaw       : 1.91684e-06	(pressure: 0	viscous: 1.91684e-06)
        Cd(f)    : 0.00153418
        Cd(r)    : 0.00153276
        Cs(f)    : 1.91684e-06
        Cs(r)    : -1.91684e-06
        Cl(f)    : -0.000263182
        Cl(r)    : -0.000876556
forces forces write:
    Sum of forces
        Total    : (0 0 0)
        Pressure : (0 0 0)
        Viscous  : (0 0 0)
    Sum of moments
        Total    : (0 0 0)
        Pressure : (0 0 0)
        Viscous  : (0 0 0)


Time = 41

smoothSolver:  Solving for Ux, Initial residual = 0.000404633, Final residual = 3.9993e-05, No Iterations 7
smoothSolver:  Solving for Uy, Initial residual = 0.0161885, Final residual = 0.00140893, No Iterations 12
GAMG:  Solving for p, Initial residual = 0.000404935, Final residual = 3.99895e-05, No Iterations 4
time step continuity errors : sum local = 2.13882e-06, global = 2.88589e-07, cumulative = 2.29637e-05
smoothSolver:  Solving for omega, Initial residual = 0.000254879, Final residual = 2.38392e-05, No Iterations 8
smoothSolver:  Solving for k, Initial residual = 0.00293333, Final residual = 0.000251684, No Iterations 7
ExecutionTime = 1 s  ClockTime = 1 s

forceCoeffs forceCoeffs execute:
    Coefficients
        Cd       : 0.00305868	(pressure: 0	viscous: 0.00305868)
        Cs       : 0	(pressure: 0	viscous: 0)
        Cl       : -0.00115041	(pressure: -0.00115164	viscous: 1.22845e-06)
        CmRoll       : 7.19005e-07	(pressure: 7.19773e-07	viscous: -7.6778e-10)
        CmPitch       : 0.000306888	(pressure: 0.000306922	viscous: -3.40589e-08)
        CmYaw       : 1.91168e-06	(pressure: 0	viscous: 1.91168e-06)
        Cd(f)    : 0.00153006
        Cd(r)    : 0.00152862
        Cs(f)    : 1.91168e-06
        Cs(r)    : -1.91168e-06
        Cl(f)    : -0.000268316
        Cl(r)    : -0.000882092
forces forces write:
    Sum of forces
        Total    : (0 0 0)
        Pressure : (0 0 0)
        Viscous  : (0 0 0)
    Sum of moments
        Total    : (0 0 0)
        Pressure : (0 0 0)
        Viscous  : (0 0 0)


Time = 42

smoothSolver:  Solving for Ux, Initial residual = 0.000402347, Final residual = 3.34316e-05, No Iterations 8
smoothSolver:  Solving for Uy, Initial residual = 0.0157158, Final residual = 0.00137054, No Iterations 12
GAMG:  Solving for p, Initial residual = 0.000381749, Final residual = 2.99379e-05, No Iterations 4
time step continuity errors : sum local = 1.63221e-06, global = 6.20092e-07, cumulative = 2.35838e-05
smoothSolver:  Solving for omega, Initial residual = 0.000243657, Final residual = 2.31774e-05, No Iterations 8
smoothSolver:  Solving for k, Initial residual = 0.00267051, Final residual = 0.000233837, No Iterations 7
bounding k, min: -4.87107e-08 max: 0.00793275 average: 0.000340278
ExecutionTime = 1.02 s  ClockTime = 1 s

forceCoeffs forceCoeffs execute:
    Coefficients
        Cd       : 0.00304986	(pressure: 0	viscous: 0.00304986)
        Cs       : 0	(pressure: 0	viscous: 0)
        Cl       : -0.0011328	(pressure: -0.00113403	viscous: 1.22944e-06)
        CmRoll       : 7.07999e-07	(pressure: 7.08768e-07	viscous: -7.68402e-10)
        CmPitch       : 0.000299515	(pressure: 0.000299549	viscous: -3.41993e-08)
        CmYaw       : 1.90616e-06	(pressure: 0	viscous: 1.90616e-06)
        Cd(f)    : 0.00152564
        Cd(r)    : 0.00152422
        Cs(f)    : 1.90616e-06
        Cs(r)    : -1.90616e-06
        Cl(f)    : -0.000266885
        Cl(r)    : -0.000865914
forces forces write:
    Sum of forces
        Total    : (0 0 0)
        Pressure : (0 0 0)
        Viscous  : (0 0 0)
    Sum of moments
        Total    : (0 0 0)
        Pressure : (0 0 0)
        Viscous  : (0 0 0)


Time = 43

smoothSolver:  Solving for Ux, Initial residual = 0.000382562, Final residual = 3.09955e-05, No Iterations 8
smoothSolver:  Solving for Uy, Initial residual = 0.0155186, Final residual = 0.00135592, No Iterations 12
GAMG:  Solving for p, Initial residual = 0.000352358, Final residual = 2.8587e-05, No Iterations 4
time step continuity errors : sum local = 1.53183e-06, global = 1.99384e-07, cumulative = 2.37832e-05
smoothSolver:  Solving for omega, Initial residual = 0.000234978, Final residual = 2.26918e-05, No Iterations 8
smoothSolver:  Solving for k, Initial residual = 0.00243885, Final residual = 0.000208875, No Iterations 7
bounding k, min: -3.45233e-08 max: 0.00791503 average: 0.000339498
ExecutionTime = 1.04 s  ClockTime = 1 s

forceCoeffs forceCoeffs execute:
    Coefficients
        Cd       : 0.0030421	(pressure: 0	viscous: 0.0030421)
        Cs       : 0	(pressure: 0	viscous: 0)
        Cl       : -0.00113924	(pressure: -0.00114047	viscous: 1.23276e-06)
        CmRoll       : 7.12026e-07	(pressure: 7.12796e-07	viscous: -7.70477e-10)
        CmPitch       : 0.000299226	(pressure: 0.00029926	viscous: -3.45393e-08)
        CmYaw       : 1.90131e-06	(pressure: 0	viscous: 1.90131e-06)
        Cd(f)    : 0.00152176
        Cd(r)    : 0.00152034
        Cs(f)    : 1.90131e-06
        Cs(r)    : -1.90131e-06
        Cl(f)    : -0.000270395
        Cl(r)    : -0.000868846
forces forces write:
    Sum of forces
        Total    : (0 0 0)
        Pressure : (0 0 0)
        Viscous  : (0 0 0)
    Sum of moments
        Total    : (0 0 0)
        Pressure : (0 0 0)
        Viscous  : (0 0 0)


Time = 44

smoothSolver:  Solving for Ux, Initial residual = 0.000377026, Final residual = 3.13906e-05, No Iterations 8
smoothSolver:  Solving for Uy, Initial residual = 0.0149917, Final residual = 0.00131184, No Iterations 12
GAMG:  Solving for p, Initial residual = 0.000334841, Final residual = 2.62305e-05, No Iterations 4
time step continuity errors : sum local = 1.42489e-06, global = 5.13593e-07, cumulative = 2.42968e-05
smoothSolver:  Solving for omega, Initial residual = 0.00022816, Final residual = 2.22428e-05, No Iterations 8
smoothSolver:  Solving for k, Initial residual = 0.00224197, Final residual = 0.000205736, No Iterations 7
ExecutionTime = 1.08 s  ClockTime = 1 s

forceCoeffs forceCoeffs execute:
    Coefficients
        Cd       : 0.00303368	(pressure: 0	viscous: 0.00303368)
        Cs       : 0	(pressure: 0	viscous: 0)
        Cl       : -0.0011288	(pressure: -0.00113003	viscous: 1.23374e-06)
        CmRoll       : 7.05501e-07	(pressure: 7.06272e-07	viscous: -7.71087e-10)
        CmPitch       : 0.000294155	(pressure: 0.00029419	viscous: -3.4666e-08)
        CmYaw       : 1.89605e-06	(pressure: 0	viscous: 1.89605e-06)
        Cd(f)    : 0.00151755
        Cd(r)    : 0.00151614
        Cs(f)    : 1.89605e-06
        Cs(r)    : -1.89605e-06
        Cl(f)    : -0.000270245
        Cl(r)    : -0.000858556
forces forces write:
    Sum of forces
        Total    : (0 0 0)
        Pressure : (0 0 0)
        Viscous  : (0 0 0)
    Sum of moments
        Total    : (0 0 0)
        Pressure : (0 0 0)
        Viscous  : (0 0 0)


Time = 45

smoothSolver:  Solving for Ux, Initial residual = 0.000360843, Final residual = 2.95533e-05, No Iterations 8
smoothSolver:  Solving for Uy, Initial residual = 0.0147862, Final residual = 0.00129668, No Iterations 12
GAMG:  Solving for p, Initial residual = 0.000312959, Final residual = 2.72916e-05, No Iterations 4
time step continuity errors : sum local = 1.46919e-06, global = 2.84312e-07, cumulative = 2.45811e-05
smoothSolver:  Solving for omega, Initial residual = 0.000219836, Final residual = 2.16959e-05, No Iterations 8
smoothSolver:  Solving for k, Initial residual = 0.00202881, Final residual = 0.000185041, No Iterations 7
bounding k, min: -2.14135e-07 max: 0.00791534 average: 0.000338285
ExecutionTime = 1.09 s  ClockTime = 1 s

forceCoeffs forceCoeffs execute:
    Coefficients
        Cd       : 0.00302632	(pressure: 0	viscous: 0.00302632)
        Cs       : 0	(pressure: 0	viscous: 0)
        Cl       : -0.00113425	(pressure: -0.00113549	viscous: 1.237e-06)
        CmRoll       : 7.08909e-07	(pressure: 7.09682e-07	viscous: -7.73123e-10)
        CmPitch       : 0.00029343	(pressure: 0.000293465	viscous: -3.50451e-08)
        CmYaw       : 1.89145e-06	(pressure: 0	viscous: 1.89145e-06)
        Cd(f)    : 0.00151387
        Cd(r)    : 0.00151245
        Cs(f)    : 1.89145e-06
        Cs(r)    : -1.89145e-06
        Cl(f)    : -0.000273697
        Cl(r)    : -0.000860557
forces forces write:
    Sum of forces
        Total    : (0 0 0)
        Pressure : (0 0 0)
        Viscous  : (0 0 0)
    Sum of moments
        Total    : (0 0 0)
        Pressure : (0 0 0)
        Viscous  : (0 0 0)


Time = 46

smoothSolver:  Solving for Ux, Initial residual = 0.000356009, Final residual = 2.99674e-05, No Iterations 8
smoothSolver:  Solving for Uy, Initial residual = 0.0144005, Final residual = 0.00126355, No Iterations 12
GAMG:  Solving for p, Initial residual = 0.000311903, Final residual = 2.4965e-05, No Iterations 4
time step continuity errors : sum local = 1.35796e-06, global = 4.83227e-07, cumulative = 2.50644e-05
smoothSolver:  Solving for omega, Initial residual = 0.000209453, Final residual = 1.70911e-05, No Iterations 9
smoothSolver:  Solving for k, Initial residual = 0.00188196, Final residual = 0.000171485, No Iterations 7
bounding k, min: -2.62102e-07 max: 0.00793618 average: 0.000337791
ExecutionTime = 1.12 s  ClockTime = 1 s

forceCoeffs forceCoeffs execute:
    Coefficients
        Cd       : 0.00301832	(pressure: 0	viscous: 0.00301832)
        Cs       : 0	(pressure: 0	viscous: 0)
        Cl       : -0.0011257	(pressure: -0.00112694	viscous: 1.23807e-06)
        CmRoll       : 7.03562e-07	(pressure: 7.04336e-07	viscous: -7.73792e-10)
        CmPitch       : 0.000288652	(pressure: 0.000288687	viscous: -3.52392e-08)
        CmYaw       : 1.88645e-06	(pressure: 0	viscous: 1.88645e-06)
        Cd(f)    : 0.00150987
        Cd(r)    : 0.00150846
        Cs(f)    : 1.88645e-06
        Cs(r)    : -1.88645e-06
        Cl(f)    : -0.000274198
        Cl(r)    : -0.000851502
forces forces write:
    Sum of forces
        Total    : (0 0 0)
        Pressure : (0 0 0)
        Viscous  : (0 0 0)
    Sum of moments
        Total    : (0 0 0)
        Pressure : (0 0 0)
        Viscous  : (0 0 0)


Time = 47

smoothSolver:  Solving for Ux, Initial residual = 0.000341601, Final residual = 2.83734e-05, No Iterations 8
smoothSolver:  Solving for Uy, Initial residual = 0.0142006, Final residual = 0.00124913, No Iterations 12
GAMG:  Solving for p, Initial residual = 0.000287963, Final residual = 2.40956e-05, No Iterations 4
time step continuity errors : sum local = 1.3012e-06, global = 2.92235e-07, cumulative = 2.53566e-05
smoothSolver:  Solving for omega, Initial residual = 0.000195238, Final residual = 1.64978e-05, No Iterations 9
smoothSolver:  Solving for k, Initial residual = 0.0016568, Final residual = 0.000163825, No Iterations 7
bounding k, min: -2.02353e-08 max: 0.0079171 average: 0.000337305
ExecutionTime = 1.14 s  ClockTime = 1 s

forceCoeffs forceCoeffs execute:
    Coefficients
        Cd       : 0.00301128	(pressure: 0	viscous: 0.00301128)
        Cs       : 0	(pressure: 0	viscous: 0)
        Cl       : -0.00112759	(pressure: -0.00112883	viscous: 1.24092e-06)
        CmRoll       : 7.04741e-07	(pressure: 7.05517e-07	viscous: -7.75576e-10)
        CmPitch       : 0.000286698	(pressure: 0.000286733	viscous: -3.56553e-08)
        CmYaw       : 1.88205e-06	(pressure: 0	viscous: 1.88205e-06)
        Cd(f)    : 0.00150635
        Cd(r)    : 0.00150494
        Cs(f)    : 1.88205e-06
        Cs(r)    : -1.88205e-06
        Cl(f)    : -0.000277095
        Cl(r)    : -0.000850491
forces forces write:
    Sum of forces
        Total    : (0 0 0)
        Pressure : (0 0 0)
        Viscous  : (0 0 0)
    Sum of moments
        Total    : (0 0 0)
        Pressure : (0 0 0)
        Viscous  : (0 0 0)


Time = 48

smoothSolver:  Solving for Ux, Initial residual = 0.000336261, Final residual = 2.85849e-05, No Iterations 8
smoothSolver:  Solving for Uy, Initial residual = 0.0138504, Final residual = 0.00121894, No Iterations 12
GAMG:  Solving for p, Initial residual = 0.000273661, Final residual = 2.15957e-05, No Iterations 4
time step continuity errors : sum local = 1.17429e-06, global = 4.30221e-07, cumulative = 2.57868e-05
smoothSolver:  Solving for omega, Initial residual = 0.000183431, Final residual = 1.581e-05, No Iterations 9
smoothSolver:  Solving for k, Initial residual = 0.00152265, Final residual = 0.000141568, No Iterations 7
bounding k, min: -2.713e-07 max: 0.00793247 average: 0.000336944
ExecutionTime = 1.15 s  ClockTime = 1 s

forceCoeffs forceCoeffs execute:
    Coefficients
        Cd       : 0.00300377	(pressure: 0	viscous: 0.00300377)
        Cs       : 0	(pressure: 0	viscous: 0)
        Cl       : -0.0011193	(pressure: -0.00112054	viscous: 1.24219e-06)
        CmRoll       : 6.99561e-07	(pressure: 7.00338e-07	viscous: -7.7637e-10)
        CmPitch       : 0.000281884	(pressure: 0.00028192	viscous: -3.59015e-08)
        CmYaw       : 1.87735e-06	(pressure: 0	viscous: 1.87735e-06)
        Cd(f)    : 0.00150258
        Cd(r)    : 0.00150118
        Cs(f)    : 1.87735e-06
        Cs(r)    : -1.87735e-06
        Cl(f)    : -0.000277765
        Cl(r)    : -0.000841533
forces forces write:
    Sum of forces
        Total    : (0 0 0)
        Pressure : (0 0 0)
        Viscous  : (0 0 0)
    Sum of moments
        Total    : (0 0 0)
        Pressure : (0 0 0)
        Viscous  : (0 0 0)


Time = 49

smoothSolver:  Solving for Ux, Initial residual = 0.000323509, Final residual = 2.72268e-05, No Iterations 8
smoothSolver:  Solving for Uy, Initial residual = 0.0136302, Final residual = 0.00120204, No Iterations 12
GAMG:  Solving for p, Initial residual = 0.000261382, Final residual = 2.0978e-05, No Iterations 4
time step continuity errors : sum local = 1.13376e-06, global = 2.81037e-07, cumulative = 2.60679e-05
smoothSolver:  Solving for omega, Initial residual = 0.000175092, Final residual = 1.54315e-05, No Iterations 9
smoothSolver:  Solving for k, Initial residual = 0.00141293, Final residual = 0.000127403, No Iterations 7
bounding k, min: -1.76606e-06 max: 0.00791983 average: 0.000336592
ExecutionTime = 1.18 s  ClockTime = 1 s

forceCoeffs forceCoeffs execute:
    Coefficients
        Cd       : 0.00299695	(pressure: 0	viscous: 0.00299695)
        Cs       : 0	(pressure: 0	viscous: 0)
        Cl       : -0.00111816	(pressure: -0.00111941	viscous: 1.24472e-06)
        CmRoll       : 6.98852e-07	(pressure: 6.9963e-07	viscous: -7.77947e-10)
        CmPitch       : 0.000279036	(pressure: 0.000279072	viscous: -3.63261e-08)
        CmYaw       : 1.8731e-06	(pressure: 0	viscous: 1.8731e-06)
        Cd(f)    : 0.00149918
        Cd(r)    : 0.00149778
        Cs(f)    : 1.8731e-06
        Cs(r)    : -1.8731e-06
        Cl(f)    : -0.000280046
        Cl(r)    : -0.000838117
forces forces write:
    Sum of forces
        Total    : (0 0 0)
        Pressure : (0 0 0)
        Viscous  : (0 0 0)
    Sum of moments
[...]
        Cs(r)    : -1.74827e-06
        Cl(f)    : -0.000370592
        Cl(r)    : -0.00101692
forces forces write:
    Sum of forces
        Total    : (0 0 0)
        Pressure : (0 0 0)
        Viscous  : (0 0 0)
    Sum of moments
        Total    : (0 0 0)
        Pressure : (0 0 0)
        Viscous  : (0 0 0)


Time = 989

smoothSolver:  Solving for Ux, Initial residual = 1.09611e-05, Final residual = 9.25003e-07, No Iterations 12
smoothSolver:  Solving for Uy, Initial residual = 0.000297517, Final residual = 2.58017e-05, No Iterations 12
GAMG:  Solving for p, Initial residual = 7.22686e-05, Final residual = 6.35021e-06, No Iterations 11
time step continuity errors : sum local = 4.00072e-07, global = 6.93615e-08, cumulative = 3.09558e-05
smoothSolver:  Solving for omega, Initial residual = 2.1031e-05, Final residual = 1.98171e-06, No Iterations 2
smoothSolver:  Solving for k, Initial residual = 1.14075e-05, Final residual = 8.89089e-07, No Iterations 2
bounding k, min: -6.29271e-07 max: 0.00791918 average: 0.000356342
ExecutionTime = 25.98 s  ClockTime = 26 s

forceCoeffs forceCoeffs execute:
    Coefficients
        Cd       : 0.00279729	(pressure: 0	viscous: 0.00279729)
        Cs       : 0	(pressure: 0	viscous: 0)
        Cl       : -0.00131622	(pressure: -0.00131759	viscous: 1.36685e-06)
        CmRoll       : 8.2264e-07	(pressure: 8.23494e-07	viscous: -8.54279e-10)
        CmPitch       : 0.000302359	(pressure: 0.000302468	viscous: -1.08265e-07)
        CmYaw       : 1.74831e-06	(pressure: 0	viscous: 1.74831e-06)
        Cd(f)    : 0.00139947
        Cd(r)    : 0.00139782
        Cs(f)    : 1.74831e-06
        Cs(r)    : -1.74831e-06
        Cl(f)    : -0.000355752
        Cl(r)    : -0.000960471
forces forces write:
    Sum of forces
        Total    : (0 0 0)
        Pressure : (0 0 0)
        Viscous  : (0 0 0)
    Sum of moments
        Total    : (0 0 0)
        Pressure : (0 0 0)
        Viscous  : (0 0 0)


Time = 990

smoothSolver:  Solving for Ux, Initial residual = 1.01874e-05, Final residual = 8.58928e-07, No Iterations 12
smoothSolver:  Solving for Uy, Initial residual = 0.000275415, Final residual = 2.38338e-05, No Iterations 12
GAMG:  Solving for p, Initial residual = 7.36529e-05, Final residual = 6.05749e-06, No Iterations 11
time step continuity errors : sum local = 3.61293e-07, global = -6.46121e-08, cumulative = 3.08912e-05
smoothSolver:  Solving for omega, Initial residual = 2.14603e-05, Final residual = 2.07833e-06, No Iterations 2
smoothSolver:  Solving for k, Initial residual = 1.16625e-05, Final residual = 7.73622e-07, No Iterations 2
bounding k, min: -4.11483e-06 max: 0.0079219 average: 0.000356351
ExecutionTime = 26.01 s  ClockTime = 26 s

forceCoeffs forceCoeffs execute:
    Coefficients
        Cd       : 0.00279722	(pressure: 0	viscous: 0.00279722)
        Cs       : 0	(pressure: 0	viscous: 0)
        Cl       : -0.00137706	(pressure: -0.00137843	viscous: 1.36658e-06)
        CmRoll       : 8.60662e-07	(pressure: 8.61516e-07	viscous: -8.54113e-10)
        CmPitch       : 0.000319856	(pressure: 0.000319965	viscous: -1.08254e-07)
        CmYaw       : 1.74827e-06	(pressure: 0	viscous: 1.74827e-06)
        Cd(f)    : 0.00139947
        Cd(r)    : 0.00139775
        Cs(f)    : 1.74827e-06
        Cs(r)    : -1.74827e-06
        Cl(f)    : -0.000368673
        Cl(r)    : -0.00100839
forces forces write:
    Sum of forces
        Total    : (0 0 0)
        Pressure : (0 0 0)
        Viscous  : (0 0 0)
    Sum of moments
        Total    : (0 0 0)
        Pressure : (0 0 0)
        Viscous  : (0 0 0)


Time = 991

smoothSolver:  Solving for Ux, Initial residual = 8.58923e-06, Final residual = 8.80144e-07, No Iterations 11
smoothSolver:  Solving for Uy, Initial residual = 0.000228838, Final residual = 1.97901e-05, No Iterations 12
GAMG:  Solving for p, Initial residual = 6.69692e-05, Final residual = 5.45211e-06, No Iterations 11
time step continuity errors : sum local = 3.4108e-07, global = 6.09881e-08, cumulative = 3.09522e-05
smoothSolver:  Solving for omega, Initial residual = 2.09798e-05, Final residual = 1.96822e-06, No Iterations 2
smoothSolver:  Solving for k, Initial residual = 1.11361e-05, Final residual = 8.83898e-07, No Iterations 2
bounding k, min: -2.50498e-07 max: 0.00791926 average: 0.000356342
ExecutionTime = 26.03 s  ClockTime = 26 s

forceCoeffs forceCoeffs execute:
    Coefficients
        Cd       : 0.00279729	(pressure: 0	viscous: 0.00279729)
        Cs       : 0	(pressure: 0	viscous: 0)
        Cl       : -0.00131959	(pressure: -0.00132095	viscous: 1.36684e-06)
        CmRoll       : 8.24742e-07	(pressure: 8.25596e-07	viscous: -8.54274e-10)
        CmPitch       : 0.000303293	(pressure: 0.000303401	viscous: -1.08263e-07)
        CmYaw       : 1.7483e-06	(pressure: 0	viscous: 1.7483e-06)
        Cd(f)    : 0.00139947
        Cd(r)    : 0.00139782
        Cs(f)    : 1.7483e-06
        Cs(r)    : -1.7483e-06
        Cl(f)    : -0.0003565
        Cl(r)    : -0.000963086
forces forces write:
    Sum of forces
        Total    : (0 0 0)
        Pressure : (0 0 0)
        Viscous  : (0 0 0)
    Sum of moments
        Total    : (0 0 0)
        Pressure : (0 0 0)
        Viscous  : (0 0 0)


Time = 992

smoothSolver:  Solving for Ux, Initial residual = 9.31013e-06, Final residual = 9.55353e-07, No Iterations 11
smoothSolver:  Solving for Uy, Initial residual = 0.000248647, Final residual = 2.15463e-05, No Iterations 12
GAMG:  Solving for p, Initial residual = 7.25609e-05, Final residual = 6.3173e-06, No Iterations 11
time step continuity errors : sum local = 3.77782e-07, global = -6.55101e-08, cumulative = 3.08866e-05
smoothSolver:  Solving for omega, Initial residual = 2.0874e-05, Final residual = 1.30365e-06, No Iterations 3
smoothSolver:  Solving for k, Initial residual = 1.16928e-05, Final residual = 7.43251e-07, No Iterations 2
bounding k, min: -4.12041e-06 max: 0.00792192 average: 0.00035635
ExecutionTime = 26.06 s  ClockTime = 26 s

forceCoeffs forceCoeffs execute:
    Coefficients
        Cd       : 0.00279723	(pressure: 0	viscous: 0.00279723)
        Cs       : 0	(pressure: 0	viscous: 0)
        Cl       : -0.00138716	(pressure: -0.00138852	viscous: 1.36658e-06)
        CmRoll       : 8.66974e-07	(pressure: 8.67828e-07	viscous: -8.5411e-10)
        CmPitch       : 0.000323061	(pressure: 0.000323169	viscous: -1.08252e-07)
        CmYaw       : 1.74827e-06	(pressure: 0	viscous: 1.74827e-06)
        Cd(f)    : 0.00139948
        Cd(r)    : 0.00139775
        Cs(f)    : 1.74827e-06
        Cs(r)    : -1.74827e-06
        Cl(f)    : -0.000370518
        Cl(r)    : -0.00101664
forces forces write:
    Sum of forces
        Total    : (0 0 0)
        Pressure : (0 0 0)
        Viscous  : (0 0 0)
    Sum of moments
        Total    : (0 0 0)
        Pressure : (0 0 0)
        Viscous  : (0 0 0)


Time = 993

smoothSolver:  Solving for Ux, Initial residual = 1.08647e-05, Final residual = 9.1585e-07, No Iterations 12
smoothSolver:  Solving for Uy, Initial residual = 0.000294575, Final residual = 2.55453e-05, No Iterations 12
GAMG:  Solving for p, Initial residual = 7.21686e-05, Final residual = 6.29466e-06, No Iterations 11
time step continuity errors : sum local = 3.96465e-07, global = 6.88121e-08, cumulative = 3.09555e-05
smoothSolver:  Solving for omega, Initial residual = 2.03003e-05, Final residual = 1.92067e-06, No Iterations 2
smoothSolver:  Solving for k, Initial residual = 1.16463e-05, Final residual = 9.63145e-07, No Iterations 2
bounding k, min: -2.27717e-06 max: 0.00791922 average: 0.000356341
ExecutionTime = 26.09 s  ClockTime = 26 s

forceCoeffs forceCoeffs execute:
    Coefficients
        Cd       : 0.00279729	(pressure: 0	viscous: 0.00279729)
        Cs       : 0	(pressure: 0	viscous: 0)
        Cl       : -0.00131658	(pressure: -0.00131795	viscous: 1.36685e-06)
        CmRoll       : 8.22864e-07	(pressure: 8.23718e-07	viscous: -8.54282e-10)
        CmPitch       : 0.000302464	(pressure: 0.000302572	viscous: -1.08267e-07)
        CmYaw       : 1.74831e-06	(pressure: 0	viscous: 1.74831e-06)
        Cd(f)    : 0.00139947
        Cd(r)    : 0.00139782
        Cs(f)    : 1.74831e-06
        Cs(r)    : -1.74831e-06
        Cl(f)    : -0.000355828
        Cl(r)    : -0.000960755
forces forces write:
    Sum of forces
        Total    : (0 0 0)
        Pressure : (0 0 0)
        Viscous  : (0 0 0)
    Sum of moments
        Total    : (0 0 0)
        Pressure : (0 0 0)
        Viscous  : (0 0 0)


Time = 994

smoothSolver:  Solving for Ux, Initial residual = 1.00907e-05, Final residual = 8.50247e-07, No Iterations 12
smoothSolver:  Solving for Uy, Initial residual = 0.00027262, Final residual = 2.35913e-05, No Iterations 12
GAMG:  Solving for p, Initial residual = 7.35358e-05, Final residual = 5.98954e-06, No Iterations 11
time step continuity errors : sum local = 3.5734e-07, global = -6.37487e-08, cumulative = 3.08917e-05
smoothSolver:  Solving for omega, Initial residual = 2.18631e-05, Final residual = 2.0247e-06, No Iterations 2
smoothSolver:  Solving for k, Initial residual = 1.17425e-05, Final residual = 8.18332e-07, No Iterations 2
bounding k, min: -4.11722e-06 max: 0.00792207 average: 0.000356351
ExecutionTime = 26.11 s  ClockTime = 26 s

forceCoeffs forceCoeffs execute:
    Coefficients
        Cd       : 0.00279723	(pressure: 0	viscous: 0.00279723)
        Cs       : 0	(pressure: 0	viscous: 0)
        Cl       : -0.00137679	(pressure: -0.00137815	viscous: 1.36658e-06)
        CmRoll       : 8.60492e-07	(pressure: 8.61346e-07	viscous: -8.54111e-10)
        CmPitch       : 0.000319778	(pressure: 0.000319886	viscous: -1.08255e-07)
        CmYaw       : 1.74827e-06	(pressure: 0	viscous: 1.74827e-06)
        Cd(f)    : 0.00139947
        Cd(r)    : 0.00139775
        Cs(f)    : 1.74827e-06
        Cs(r)    : -1.74827e-06
        Cl(f)    : -0.000368616
        Cl(r)    : -0.00100817
forces forces write:
    Sum of forces
        Total    : (0 0 0)
        Pressure : (0 0 0)
        Viscous  : (0 0 0)
    Sum of moments
        Total    : (0 0 0)
        Pressure : (0 0 0)
        Viscous  : (0 0 0)


Time = 995

smoothSolver:  Solving for Ux, Initial residual = 8.51637e-06, Final residual = 8.71475e-07, No Iterations 11
smoothSolver:  Solving for Uy, Initial residual = 0.000226599, Final residual = 1.95925e-05, No Iterations 12
GAMG:  Solving for p, Initial residual = 6.75038e-05, Final residual = 5.40109e-06, No Iterations 11
time step continuity errors : sum local = 3.37818e-07, global = 6.04461e-08, cumulative = 3.09522e-05
smoothSolver:  Solving for omega, Initial residual = 2.08882e-05, Final residual = 1.98945e-06, No Iterations 2
smoothSolver:  Solving for k, Initial residual = 1.16149e-05, Final residual = 9.01825e-07, No Iterations 2
bounding k, min: -3.57696e-07 max: 0.0079192 average: 0.000356343
ExecutionTime = 26.13 s  ClockTime = 26 s

forceCoeffs forceCoeffs execute:
    Coefficients
        Cd       : 0.00279729	(pressure: 0	viscous: 0.00279729)
        Cs       : 0	(pressure: 0	viscous: 0)
        Cl       : -0.00131988	(pressure: -0.00132124	viscous: 1.36685e-06)
        CmRoll       : 8.24924e-07	(pressure: 8.25778e-07	viscous: -8.54283e-10)
        CmPitch       : 0.000303376	(pressure: 0.000303484	viscous: -1.08265e-07)
        CmYaw       : 1.74831e-06	(pressure: 0	viscous: 1.74831e-06)
        Cd(f)    : 0.00139947
        Cd(r)    : 0.00139782
        Cs(f)    : 1.74831e-06
        Cs(r)    : -1.74831e-06
        Cl(f)    : -0.000356563
        Cl(r)    : -0.000963315
forces forces write:
    Sum of forces
        Total    : (0 0 0)
        Pressure : (0 0 0)
        Viscous  : (0 0 0)
    Sum of moments
        Total    : (0 0 0)
        Pressure : (0 0 0)
        Viscous  : (0 0 0)


Time = 996

smoothSolver:  Solving for Ux, Initial residual = 9.23889e-06, Final residual = 9.4602e-07, No Iterations 11
smoothSolver:  Solving for Uy, Initial residual = 0.000246266, Final residual = 2.13366e-05, No Iterations 12
GAMG:  Solving for p, Initial residual = 7.3186e-05, Final residual = 6.25347e-06, No Iterations 11
time step continuity errors : sum local = 3.74052e-07, global = -6.48169e-08, cumulative = 3.08873e-05
smoothSolver:  Solving for omega, Initial residual = 2.1224e-05, Final residual = 2.06494e-06, No Iterations 2
smoothSolver:  Solving for k, Initial residual = 1.181e-05, Final residual = 7.25528e-07, No Iterations 2
bounding k, min: -4.07889e-06 max: 0.00792195 average: 0.000356351
ExecutionTime = 26.17 s  ClockTime = 26 s

forceCoeffs forceCoeffs execute:
    Coefficients
        Cd       : 0.00279723	(pressure: 0	viscous: 0.00279723)
        Cs       : 0	(pressure: 0	viscous: 0)
        Cl       : -0.00138677	(pressure: -0.00138814	viscous: 1.36658e-06)
        CmRoll       : 8.66734e-07	(pressure: 8.67588e-07	viscous: -8.54111e-10)
        CmPitch       : 0.000322947	(pressure: 0.000323056	viscous: -1.08251e-07)
        CmYaw       : 1.74827e-06	(pressure: 0	viscous: 1.74827e-06)
        Cd(f)    : 0.00139948
        Cd(r)    : 0.00139775
        Cs(f)    : 1.74827e-06
        Cs(r)    : -1.74827e-06
        Cl(f)    : -0.00037044
        Cl(r)    : -0.00101633
forces forces write:
    Sum of forces
        Total    : (0 0 0)
        Pressure : (0 0 0)
        Viscous  : (0 0 0)
    Sum of moments
        Total    : (0 0 0)
        Pressure : (0 0 0)
        Viscous  : (0 0 0)


Time = 997

smoothSolver:  Solving for Ux, Initial residual = 1.07522e-05, Final residual = 9.06555e-07, No Iterations 12
smoothSolver:  Solving for Uy, Initial residual = 0.000291599, Final residual = 2.52865e-05, No Iterations 12
GAMG:  Solving for p, Initial residual = 7.15833e-05, Final residual = 6.22684e-06, No Iterations 11
time step continuity errors : sum local = 3.92085e-07, global = 6.79644e-08, cumulative = 3.09553e-05
smoothSolver:  Solving for omega, Initial residual = 2.10366e-05, Final residual = 1.98076e-06, No Iterations 2
smoothSolver:  Solving for k, Initial residual = 1.13652e-05, Final residual = 8.789e-07, No Iterations 2
bounding k, min: -6.29272e-07 max: 0.00791918 average: 0.000356342
ExecutionTime = 26.2 s  ClockTime = 26 s

forceCoeffs forceCoeffs execute:
    Coefficients
        Cd       : 0.00279729	(pressure: 0	viscous: 0.00279729)
        Cs       : 0	(pressure: 0	viscous: 0)
        Cl       : -0.00131689	(pressure: -0.00131826	viscous: 1.36685e-06)
        CmRoll       : 8.23058e-07	(pressure: 8.23912e-07	viscous: -8.5428e-10)
        CmPitch       : 0.000302553	(pressure: 0.000302661	viscous: -1.08265e-07)
        CmYaw       : 1.74831e-06	(pressure: 0	viscous: 1.74831e-06)
        Cd(f)    : 0.00139947
        Cd(r)    : 0.00139782
        Cs(f)    : 1.74831e-06
        Cs(r)    : -1.74831e-06
        Cl(f)    : -0.000355893
        Cl(r)    : -0.000960999
forces forces write:
    Sum of forces
        Total    : (0 0 0)
        Pressure : (0 0 0)
        Viscous  : (0 0 0)
    Sum of moments
        Total    : (0 0 0)
        Pressure : (0 0 0)
        Viscous  : (0 0 0)


Time = 998

smoothSolver:  Solving for Ux, Initial residual = 9.99451e-06, Final residual = 8.41806e-07, No Iterations 12
smoothSolver:  Solving for Uy, Initial residual = 0.000269995, Final residual = 2.33633e-05, No Iterations 12
GAMG:  Solving for p, Initial residual = 7.29086e-05, Final residual = 5.93231e-06, No Iterations 11
time step continuity errors : sum local = 3.54017e-07, global = -6.32712e-08, cumulative = 3.0892e-05
smoothSolver:  Solving for omega, Initial residual = 2.14636e-05, Final residual = 2.0798e-06, No Iterations 2
smoothSolver:  Solving for k, Initial residual = 1.18195e-05, Final residual = 7.8414e-07, No Iterations 2
bounding k, min: -4.11479e-06 max: 0.0079219 average: 0.000356351
ExecutionTime = 26.21 s  ClockTime = 26 s

forceCoeffs forceCoeffs execute:
    Coefficients
        Cd       : 0.00279722	(pressure: 0	viscous: 0.00279722)
        Cs       : 0	(pressure: 0	viscous: 0)
        Cl       : -0.00137653	(pressure: -0.00137789	viscous: 1.36658e-06)
        CmRoll       : 8.60329e-07	(pressure: 8.61183e-07	viscous: -8.54114e-10)
        CmPitch       : 0.000319704	(pressure: 0.000319812	viscous: -1.08254e-07)
        CmYaw       : 1.74827e-06	(pressure: 0	viscous: 1.74827e-06)
        Cd(f)    : 0.00139947
        Cd(r)    : 0.00139775
        Cs(f)    : 1.74827e-06
        Cs(r)    : -1.74827e-06
        Cl(f)    : -0.000368559
        Cl(r)    : -0.00100797
forces forces write:
    Sum of forces
        Total    : (0 0 0)
        Pressure : (0 0 0)
        Viscous  : (0 0 0)
    Sum of moments
        Total    : (0 0 0)
        Pressure : (0 0 0)
        Viscous  : (0 0 0)


Time = 999

smoothSolver:  Solving for Ux, Initial residual = 8.42843e-06, Final residual = 8.62614e-07, No Iterations 11
smoothSolver:  Solving for Uy, Initial residual = 0.000224294, Final residual = 1.93945e-05, No Iterations 12
GAMG:  Solving for p, Initial residual = 6.63891e-05, Final residual = 5.34511e-06, No Iterations 11
time step continuity errors : sum local = 3.34249e-07, global = 5.97471e-08, cumulative = 3.09518e-05
smoothSolver:  Solving for omega, Initial residual = 2.09889e-05, Final residual = 1.96775e-06, No Iterations 2
smoothSolver:  Solving for k, Initial residual = 1.1318e-05, Final residual = 8.96503e-07, No Iterations 2
bounding k, min: -2.50497e-07 max: 0.00791926 average: 0.000356342
ExecutionTime = 26.24 s  ClockTime = 26 s

forceCoeffs forceCoeffs execute:
    Coefficients
        Cd       : 0.00279729	(pressure: 0	viscous: 0.00279729)
        Cs       : 0	(pressure: 0	viscous: 0)
        Cl       : -0.00132019	(pressure: -0.00132156	viscous: 1.36684e-06)
        CmRoll       : 8.25118e-07	(pressure: 8.25972e-07	viscous: -8.54275e-10)
        CmPitch       : 0.000303468	(pressure: 0.000303576	viscous: -1.08264e-07)
        CmYaw       : 1.7483e-06	(pressure: 0	viscous: 1.7483e-06)
        Cd(f)    : 0.00139947
        Cd(r)    : 0.00139782
        Cs(f)    : 1.7483e-06
        Cs(r)    : -1.7483e-06
        Cl(f)    : -0.000356626
        Cl(r)    : -0.000963562
forces forces write:
    Sum of forces
        Total    : (0 0 0)
        Pressure : (0 0 0)
        Viscous  : (0 0 0)
    Sum of moments
        Total    : (0 0 0)
        Pressure : (0 0 0)
        Viscous  : (0 0 0)


Time = 1000

smoothSolver:  Solving for Ux, Initial residual = 9.13437e-06, Final residual = 9.36332e-07, No Iterations 11
smoothSolver:  Solving for Uy, Initial residual = 0.000243755, Final residual = 2.11211e-05, No Iterations 12
GAMG:  Solving for p, Initial residual = 7.18042e-05, Final residual = 6.18687e-06, No Iterations 11
time step continuity errors : sum local = 3.70161e-07, global = -6.41625e-08, cumulative = 3.08876e-05
smoothSolver:  Solving for omega, Initial residual = 2.08808e-05, Final residual = 1.30515e-06, No Iterations 3
smoothSolver:  Solving for k, Initial residual = 1.16162e-05, Final residual = 7.36247e-07, No Iterations 2
bounding k, min: -4.12037e-06 max: 0.00792193 average: 0.00035635
ExecutionTime = 26.33 s  ClockTime = 26 s

forceCoeffs forceCoeffs execute:
    Coefficients
        Cd       : 0.00279723	(pressure: 0	viscous: 0.00279723)
        Cs       : 0	(pressure: 0	viscous: 0)
        Cl       : -0.00138642	(pressure: -0.00138779	viscous: 1.36658e-06)
        CmRoll       : 8.66513e-07	(pressure: 8.67367e-07	viscous: -8.54111e-10)
        CmPitch       : 0.000322844	(pressure: 0.000322953	viscous: -1.08252e-07)
        CmYaw       : 1.74827e-06	(pressure: 0	viscous: 1.74827e-06)
        Cd(f)    : 0.00139948
        Cd(r)    : 0.00139775
        Cs(f)    : 1.74827e-06
        Cs(r)    : -1.74827e-06
        Cl(f)    : -0.000370366
        Cl(r)    : -0.00101605
forces forces write:
    Sum of forces
        Total    : (0 0 0)
        Pressure : (0 0 0)
        Viscous  : (0 0 0)
    Sum of moments
        Total    : (0 0 0)
        Pressure : (0 0 0)
        Viscous  : (0 0 0)


End

