/*---------------------------------------------------------------------------*\
| =========                 |                                                 |
| \\      /  F ield         | OpenFOAM: The Open Source CFD Toolbox           |
|  \\    /   O peration     | Version:  v1912                                 |
|   \\  /    A nd           | Website:  www.openfoam.com                      |
|    \\/     M anipulation  |                                                 |
\*---------------------------------------------------------------------------*/
Build  : _f3950763fe-20191219 OPENFOAM=1912
Arch   : "LSB;label=32;scalar=64"
Exec   : simpleFoam -parallel
Date   : Jul 01 2020
Time   : 09:43:19
Host   : DESKTOP-7S8DQ3L
PID    : 3691
I/O    : uncollated
Case   : /mnt/c/CFD/Final_Case/Refined_Grid/Laminar
nProcs : 4
Hosts  :
(
    (DESKTOP-7S8DQ3L 4)
)
Pstream initialized with:
    floatTransfer      : 0
    nProcsSimpleSum    : 0
    commsType          : nonBlocking
    polling iterations : 0
trapFpe: Floating point exception trapping enabled (FOAM_SIGFPE).
fileModificationChecking : Monitoring run-time modified files using timeStampMaster (fileModificationSkew 10)
allowSystemOperations : Allowing user-supplied system call operations

// * * * * * * * * * * * * * * * * * * * * * * * * * * * * * * * * * * * * * //
Create time

Create mesh for time = 0


SIMPLE: convergence criteria
    field p	 tolerance 1e-06
    field U	 tolerance 1e-06
    field "(k|epsilon|omega|nuTilda|f|v2)"	 tolerance 1e-06

Reading field p

Reading field U

Reading/calculating face flux field phi

Selecting incompressible transport model Newtonian
Selecting turbulence model type laminar
Selecting laminar stress model Stokes
No MRF models present

No finite volume options present

Starting time loop

forceCoeffs forceCoeffs:
    rho: rhoInf
    Freestream density (rhoInf) set to 1.225
    Not including porosity effects

Time = 1

smoothSolver:  Solving for Ux, Initial residual = 1, Final residual = 0.0969996, No Iterations 10
smoothSolver:  Solving for Uy, Initial residual = 1, Final residual = 0.0837572, No Iterations 5
GAMG:  Solving for p, Initial residual = 1, Final residual = 0.0836171, No Iterations 14
time step continuity errors : sum local = 0.0220111, global = -0.000285123, cumulative = -0.000285123
ExecutionTime = 0.16 s  ClockTime = 0 s

forceCoeffs forceCoeffs execute:
    Coefficients
        Cd       : 0.0464093	(pressure: 0.0358363	viscous: 0.010573)
        Cs       : -9.79658e-20	(pressure: -9.37276e-18	viscous: 9.27479e-18)
        Cl       : -0.0257376	(pressure: -0.0255078	viscous: -0.000229792)
        CmRoll       : 1.28688e-07	(pressure: 1.27539e-07	viscous: 1.14896e-09)
        CmPitch       : -1.86887e-05	(pressure: -4.31903e-05	viscous: 2.45016e-05)
        CmYaw       : 2.32046e-07	(pressure: 1.79181e-07	viscous: 5.28649e-08)
        Cd(f)    : 0.0232048
        Cd(r)    : 0.0232045
        Cs(f)    : 2.32046e-07
        Cs(r)    : -2.32046e-07
        Cl(f)    : -0.0128875
        Cl(r)    : -0.0128501
Time = 2

smoothSolver:  Solving for Ux, Initial residual = 0.288323, Final residual = 0.0265954, No Iterations 6
smoothSolver:  Solving for Uy, Initial residual = 0.361301, Final residual = 0.0340971, No Iterations 6
GAMG:  Solving for p, Initial residual = 0.280432, Final residual = 0.0182718, No Iterations 10
time step continuity errors : sum local = 0.0312851, global = -0.00187747, cumulative = -0.00216259
ExecutionTime = 0.17 s  ClockTime = 0 s

forceCoeffs forceCoeffs execute:
    Coefficients
        Cd       : 0.03627	(pressure: 0.0296446	viscous: 0.00662539)
        Cs       : -4.10607e-18	(pressure: -4.54461e-18	viscous: 4.38539e-19)
        Cl       : 0.0632128	(pressure: 0.0597318	viscous: 0.00348103)
        CmRoll       : -3.16064e-07	(pressure: -2.98659e-07	viscous: -1.74051e-08)
        CmPitch       : -0.000409085	(pressure: -0.000412495	viscous: 3.40964e-06)
        CmYaw       : 1.8135e-07	(pressure: 1.48223e-07	viscous: 3.31269e-08)
        Cd(f)    : 0.0181347
        Cd(r)    : 0.0181353
        Cs(f)    : 1.8135e-07
        Cs(r)    : -1.8135e-07
        Cl(f)    : 0.0311973
        Cl(r)    : 0.0320155
Time = 3

smoothSolver:  Solving for Ux, Initial residual = 0.150974, Final residual = 0.0128087, No Iterations 6
smoothSolver:  Solving for Uy, Initial residual = 0.217029, Final residual = 0.0181224, No Iterations 6
GAMG:  Solving for p, Initial residual = 0.0441187, Final residual = 0.0036979, No Iterations 10
time step continuity errors : sum local = 0.0232773, global = -0.000464146, cumulative = -0.00262674
ExecutionTime = 0.19 s  ClockTime = 0 s

forceCoeffs forceCoeffs execute:
    Coefficients
        Cd       : 0.0215339	(pressure: 0.0161906	viscous: 0.00534336)
        Cs       : -2.3457e-18	(pressure: 1.5611e-19	viscous: -2.50181e-18)
        Cl       : 0.0697795	(pressure: 0.0686672	viscous: 0.00111234)
        CmRoll       : -3.48898e-07	(pressure: -3.43336e-07	viscous: -5.56169e-09)
        CmPitch       : -0.00034983	(pressure: -0.000359135	viscous: 9.30506e-06)
        CmYaw       : 1.0767e-07	(pressure: 8.09529e-08	viscous: 2.67168e-08)
        Cd(f)    : 0.0107666
        Cd(r)    : 0.0107673
        Cs(f)    : 1.0767e-07
        Cs(r)    : -1.0767e-07
        Cl(f)    : 0.0345399
        Cl(r)    : 0.0352396
Time = 4

smoothSolver:  Solving for Ux, Initial residual = 0.0915191, Final residual = 0.0070267, No Iterations 6
smoothSolver:  Solving for Uy, Initial residual = 0.122807, Final residual = 0.00991467, No Iterations 5
GAMG:  Solving for p, Initial residual = 0.0360025, Final residual = 0.00337312, No Iterations 9
time step continuity errors : sum local = 0.0194203, global = -0.00165962, cumulative = -0.00428636
ExecutionTime = 0.19 s  ClockTime = 0 s

forceCoeffs forceCoeffs execute:
    Coefficients
        Cd       : 0.0138945	(pressure: 0.00973018	viscous: 0.0041643)
        Cs       : -2.78805e-19	(pressure: 2.39659e-18	viscous: -2.6754e-18)
        Cl       : 0.0689197	(pressure: 0.0676208	viscous: 0.00129892)
        CmRoll       : -3.44599e-07	(pressure: -3.38104e-07	viscous: -6.4946e-09)
        CmPitch       : -0.000302893	(pressure: -0.000308075	viscous: 5.18226e-06)
        CmYaw       : 6.94724e-08	(pressure: 4.86509e-08	viscous: 2.08215e-08)
        Cd(f)    : 0.0069469
        Cd(r)    : 0.00694758
        Cs(f)    : 6.94724e-08
        Cs(r)    : -6.94724e-08
        Cl(f)    : 0.034157
        Cl(r)    : 0.0347628
Time = 5

smoothSolver:  Solving for Ux, Initial residual = 0.069915, Final residual = 0.00694204, No Iterations 5
smoothSolver:  Solving for Uy, Initial residual = 0.0902617, Final residual = 0.00663267, No Iterations 5
GAMG:  Solving for p, Initial residual = 0.0314334, Final residual = 0.00271681, No Iterations 8
time step continuity errors : sum local = 0.0142898, global = 0.00135611, cumulative = -0.00293025
ExecutionTime = 0.2 s  ClockTime = 0 s

forceCoeffs forceCoeffs execute:
    Coefficients
        Cd       : 0.0110723	(pressure: 0.00757866	viscous: 0.00349365)
        Cs       : 7.73792e-19	(pressure: 3.36524e-18	viscous: -2.59145e-18)
        Cl       : 0.0660118	(pressure: 0.0649092	viscous: 0.00110267)
        CmRoll       : -3.30059e-07	(pressure: -3.24546e-07	viscous: -5.51335e-09)
        CmPitch       : -0.000274658	(pressure: -0.000278755	viscous: 4.09642e-06)
        CmYaw       : 5.53616e-08	(pressure: 3.78933e-08	viscous: 1.74683e-08)
        Cd(f)    : 0.00553583
        Cd(r)    : 0.00553649
        Cs(f)    : 5.53616e-08
        Cs(r)    : -5.53616e-08
        Cl(f)    : 0.0327313
        Cl(r)    : 0.0332806
Time = 6

smoothSolver:  Solving for Ux, Initial residual = 0.0589116, Final residual = 0.00465157, No Iterations 6
smoothSolver:  Solving for Uy, Initial residual = 0.0766734, Final residual = 0.00688646, No Iterations 4
GAMG:  Solving for p, Initial residual = 0.0248318, Final residual = 0.00241766, No Iterations 8
time step continuity errors : sum local = 0.0130176, global = 0.000182818, cumulative = -0.00274744
ExecutionTime = 0.21 s  ClockTime = 1 s

forceCoeffs forceCoeffs execute:
    Coefficients
        Cd       : 0.0103502	(pressure: 0.00725962	viscous: 0.00309055)
        Cs       : 1.30618e-18	(pressure: 3.74104e-18	viscous: -2.43485e-18)
        Cl       : 0.0641856	(pressure: 0.0631731	viscous: 0.00101251)
        CmRoll       : -3.20928e-07	(pressure: -3.15866e-07	viscous: -5.06256e-09)
        CmPitch       : -0.0002646	(pressure: -0.000268004	viscous: 3.40446e-06)
        CmYaw       : 5.17508e-08	(pressure: 3.62981e-08	viscous: 1.54528e-08)
        Cd(f)    : 0.00517476
        Cd(r)    : 0.00517541
        Cs(f)    : 5.17508e-08
        Cs(r)    : -5.17508e-08
        Cl(f)    : 0.0318282
        Cl(r)    : 0.0323574
Time = 7

smoothSolver:  Solving for Ux, Initial residual = 0.0508251, Final residual = 0.00456506, No Iterations 6
smoothSolver:  Solving for Uy, Initial residual = 0.0671469, Final residual = 0.00619515, No Iterations 4
GAMG:  Solving for p, Initial residual = 0.018441, Final residual = 0.00179415, No Iterations 8
time step continuity errors : sum local = 0.0108839, global = -0.000536933, cumulative = -0.00328437
ExecutionTime = 0.21 s  ClockTime = 1 s

forceCoeffs forceCoeffs execute:
    Coefficients
        Cd       : 0.0104652	(pressure: 0.00762047	viscous: 0.00284472)
        Cs       : 1.57217e-18	(pressure: 3.84515e-18	viscous: -2.27297e-18)
        Cl       : 0.0636312	(pressure: 0.0626991	viscous: 0.000932115)
        CmRoll       : -3.18156e-07	(pressure: -3.13495e-07	viscous: -4.66057e-09)
        CmPitch       : -0.000265827	(pressure: -0.000269018	viscous: 3.19153e-06)
        CmYaw       : 5.23259e-08	(pressure: 3.81023e-08	viscous: 1.42236e-08)
        Cd(f)    : 0.00523228
        Cd(r)    : 0.00523291
        Cs(f)    : 5.23259e-08
        Cs(r)    : -5.23259e-08
        Cl(f)    : 0.0315498
        Cl(r)    : 0.0320814
Time = 8

smoothSolver:  Solving for Ux, Initial residual = 0.0442526, Final residual = 0.00342064, No Iterations 7
smoothSolver:  Solving for Uy, Initial residual = 0.0577066, Final residual = 0.00411026, No Iterations 5
GAMG:  Solving for p, Initial residual = 0.0149565, Final residual = 0.00114749, No Iterations 7
time step continuity errors : sum local = 0.00775195, global = 0.0017287, cumulative = -0.00155567
ExecutionTime = 0.23 s  ClockTime = 1 s

forceCoeffs forceCoeffs execute:
    Coefficients
        Cd       : 0.0106482	(pressure: 0.00797122	viscous: 0.00267699)
        Cs       : 1.67921e-18	(pressure: 3.85359e-18	viscous: -2.17438e-18)
        Cl       : 0.0634383	(pressure: 0.0625692	viscous: 0.000869073)
        CmRoll       : -3.17191e-07	(pressure: -3.12846e-07	viscous: -4.34536e-09)
        CmPitch       : -0.000269073	(pressure: -0.000272161	viscous: 3.08803e-06)
        CmYaw       : 5.32411e-08	(pressure: 3.98561e-08	viscous: 1.33849e-08)
        Cd(f)    : 0.00532379
        Cd(r)    : 0.00532442
        Cs(f)    : 5.32411e-08
        Cs(r)    : -5.32411e-08
        Cl(f)    : 0.0314501
        Cl(r)    : 0.0319882
Time = 9

smoothSolver:  Solving for Ux, Initial residual = 0.0384913, Final residual = 0.0033264, No Iterations 7
smoothSolver:  Solving for Uy, Initial residual = 0.0486179, Final residual = 0.00396844, No Iterations 5
GAMG:  Solving for p, Initial residual = 0.0122787, Final residual = 0.00110477, No Iterations 5
time step continuity errors : sum local = 0.00801364, global = 0.000868458, cumulative = -0.000687208
ExecutionTime = 0.23 s  ClockTime = 1 s

forceCoeffs forceCoeffs execute:
    Coefficients
        Cd       : 0.0107524	(pressure: 0.00819609	viscous: 0.00255636)
        Cs       : 1.70552e-18	(pressure: 3.81531e-18	viscous: -2.10979e-18)
        Cl       : 0.0632021	(pressure: 0.062363	viscous: 0.000839038)
        CmRoll       : -3.1601e-07	(pressure: -3.11815e-07	viscous: -4.19519e-09)
        CmPitch       : -0.000270947	(pressure: -0.000273855	viscous: 2.90801e-06)
        CmYaw       : 5.37622e-08	(pressure: 4.09805e-08	viscous: 1.27818e-08)
        Cd(f)    : 0.00537591
        Cd(r)    : 0.00537654
        Cs(f)    : 5.37622e-08
        Cs(r)    : -5.37622e-08
        Cl(f)    : 0.0313301
        Cl(r)    : 0.031872
Time = 10

smoothSolver:  Solving for Ux, Initial residual = 0.034431, Final residual = 0.00325404, No Iterations 7
smoothSolver:  Solving for Uy, Initial residual = 0.0417548, Final residual = 0.00366988, No Iterations 5
GAMG:  Solving for p, Initial residual = 0.0103752, Final residual = 0.000911009, No Iterations 5
time step continuity errors : sum local = 0.00682328, global = 0.000420033, cumulative = -0.000267175
ExecutionTime = 0.24 s  ClockTime = 1 s

forceCoeffs forceCoeffs execute:
    Coefficients
        Cd       : 0.0108876	(pressure: 0.00841759	viscous: 0.00247004)
        Cs       : 1.70536e-18	(pressure: 3.72966e-18	viscous: -2.0243e-18)
        Cl       : 0.0627472	(pressure: 0.0619279	viscous: 0.000819348)
        CmRoll       : -3.13736e-07	(pressure: -3.09639e-07	viscous: -4.09674e-09)
        CmPitch       : -0.00027107	(pressure: -0.000273817	viscous: 2.74742e-06)
        CmYaw       : 5.44382e-08	(pressure: 4.20879e-08	viscous: 1.23502e-08)
        Cd(f)    : 0.0054435
        Cd(r)    : 0.00544413
        Cs(f)    : 5.44382e-08
        Cs(r)    : -5.44382e-08
        Cl(f)    : 0.0311025
        Cl(r)    : 0.0316447
Time = 11

smoothSolver:  Solving for Ux, Initial residual = 0.0315122, Final residual = 0.00253288, No Iterations 8
smoothSolver:  Solving for Uy, Initial residual = 0.0364917, Final residual = 0.00351747, No Iterations 5
GAMG:  Solving for p, Initial residual = 0.00921044, Final residual = 0.000904189, No Iterations 5
time step continuity errors : sum local = 0.00685858, global = -0.000155946, cumulative = -0.000423121
ExecutionTime = 0.24 s  ClockTime = 1 s

forceCoeffs forceCoeffs execute:
    Coefficients
        Cd       : 0.0110061	(pressure: 0.00859764	viscous: 0.00240844)
        Cs       : 1.67354e-18	(pressure: 3.62559e-18	viscous: -1.95205e-18)
        Cl       : 0.0621252	(pressure: 0.0613174	viscous: 0.00080771)
        CmRoll       : -3.10626e-07	(pressure: -3.06587e-07	viscous: -4.03855e-09)
        CmPitch       : -0.000269587	(pressure: -0.000272202	viscous: 2.61482e-06)
        CmYaw       : 5.50304e-08	(pressure: 4.29882e-08	viscous: 1.20422e-08)
        Cd(f)    : 0.00550273
        Cd(r)    : 0.00550335
        Cs(f)    : 5.50304e-08
        Cs(r)    : -5.50304e-08
        Cl(f)    : 0.030793
        Cl(r)    : 0.0313322
Time = 12

smoothSolver:  Solving for Ux, Initial residual = 0.028896, Final residual = 0.00248704, No Iterations 8
smoothSolver:  Solving for Uy, Initial residual = 0.0333795, Final residual = 0.00275187, No Iterations 6
GAMG:  Solving for p, Initial residual = 0.00857152, Final residual = 0.000820628, No Iterations 6
time step continuity errors : sum local = 0.0061513, global = -0.000686156, cumulative = -0.00110928
ExecutionTime = 0.26 s  ClockTime = 1 s

forceCoeffs forceCoeffs execute:
    Coefficients
        Cd       : 0.0111567	(pressure: 0.00879115	viscous: 0.00236554)
        Cs       : 1.63359e-18	(pressure: 3.50607e-18	viscous: -1.87248e-18)
        Cl       : 0.0612756	(pressure: 0.0604781	viscous: 0.000797464)
        CmRoll       : -3.06378e-07	(pressure: -3.02391e-07	viscous: -3.98732e-09)
        CmPitch       : -0.000266526	(pressure: -0.00026905	viscous: 2.52486e-06)
        CmYaw       : 5.57835e-08	(pressure: 4.39558e-08	viscous: 1.18277e-08)
        Cd(f)    : 0.00557804
        Cd(r)    : 0.00557865
        Cs(f)    : 5.57835e-08
        Cs(r)    : -5.57835e-08
        Cl(f)    : 0.0303713
        Cl(r)    : 0.0309043
Time = 13

smoothSolver:  Solving for Ux, Initial residual = 0.0271344, Final residual = 0.0024142, No Iterations 8
smoothSolver:  Solving for Uy, Initial residual = 0.0301307, Final residual = 0.00281004, No Iterations 6
GAMG:  Solving for p, Initial residual = 0.00843813, Final residual = 0.000701925, No Iterations 7
time step continuity errors : sum local = 0.00508336, global = -0.000461947, cumulative = -0.00157122
ExecutionTime = 0.28 s  ClockTime = 1 s

forceCoeffs forceCoeffs execute:
    Coefficients
        Cd       : 0.0113133	(pressure: 0.00897792	viscous: 0.00233541)
        Cs       : 1.58427e-18	(pressure: 3.39265e-18	viscous: -1.80837e-18)
        Cl       : 0.0604164	(pressure: 0.0596265	viscous: 0.000789899)
        CmRoll       : -3.02082e-07	(pressure: -2.98133e-07	viscous: -3.94949e-09)
        CmPitch       : -0.000263024	(pressure: -0.000265494	viscous: 2.47e-06)
        CmYaw       : 5.65666e-08	(pressure: 4.48896e-08	viscous: 1.16771e-08)
        Cd(f)    : 0.00565636
        Cd(r)    : 0.00565697
        Cs(f)    : 5.65666e-08
        Cs(r)    : -5.65666e-08
        Cl(f)    : 0.0299452
        Cl(r)    : 0.0304712
Time = 14

smoothSolver:  Solving for Ux, Initial residual = 0.0260444, Final residual = 0.00231236, No Iterations 8
smoothSolver:  Solving for Uy, Initial residual = 0.0281806, Final residual = 0.00225526, No Iterations 7
GAMG:  Solving for p, Initial residual = 0.008307, Final residual = 0.000667373, No Iterations 7
time step continuity errors : sum local = 0.00468692, global = -0.000514207, cumulative = -0.00208543
ExecutionTime = 0.28 s  ClockTime = 1 s

forceCoeffs forceCoeffs execute:
    Coefficients
        Cd       : 0.0114656	(pressure: 0.00915076	viscous: 0.00231481)
        Cs       : 1.53832e-18	(pressure: 3.28832e-18	viscous: -1.75e-18)
        Cl       : 0.0595498	(pressure: 0.0587684	viscous: 0.000781379)
        CmRoll       : -2.97749e-07	(pressure: -2.93842e-07	viscous: -3.90689e-09)
        CmPitch       : -0.000259267	(pressure: -0.000261717	viscous: 2.44957e-06)
        CmYaw       : 5.73279e-08	(pressure: 4.57538e-08	viscous: 1.15741e-08)
        Cd(f)    : 0.00573249
        Cd(r)    : 0.00573308
        Cs(f)    : 5.73279e-08
        Cs(r)    : -5.73279e-08
        Cl(f)    : 0.0295156
        Cl(r)    : 0.0300342
Time = 15

smoothSolver:  Solving for Ux, Initial residual = 0.0247749, Final residual = 0.00220605, No Iterations 8
smoothSolver:  Solving for Uy, Initial residual = 0.0260011, Final residual = 0.00227973, No Iterations 7
GAMG:  Solving for p, Initial residual = 0.00813772, Final residual = 0.000642879, No Iterations 7
time step continuity errors : sum local = 0.00441693, global = -0.000464902, cumulative = -0.00255033
ExecutionTime = 0.3 s  ClockTime = 1 s

forceCoeffs forceCoeffs execute:
    Coefficients
        Cd       : 0.0115902	(pressure: 0.00928899	viscous: 0.00230119)
        Cs       : 1.49777e-18	(pressure: 3.20018e-18	viscous: -1.7024e-18)
        Cl       : 0.0587273	(pressure: 0.0579532	viscous: 0.000774104)
        CmRoll       : -2.93637e-07	(pressure: -2.89766e-07	viscous: -3.87052e-09)
        CmPitch       : -0.000255579	(pressure: -0.000258031	viscous: 2.45247e-06)
        CmYaw       : 5.79509e-08	(pressure: 4.64449e-08	viscous: 1.1506e-08)
        Cd(f)    : 0.0057948
        Cd(r)    : 0.00579538
        Cs(f)    : 5.79509e-08
        Cs(r)    : -5.79509e-08
        Cl(f)    : 0.0291081
        Cl(r)    : 0.0296192
Time = 16

smoothSolver:  Solving for Ux, Initial residual = 0.0232371, Final residual = 0.00209856, No Iterations 8
smoothSolver:  Solving for Uy, Initial residual = 0.0247967, Final residual = 0.00235348, No Iterations 7
GAMG:  Solving for p, Initial residual = 0.00783265, Final residual = 0.000626982, No Iterations 7
time step continuity errors : sum local = 0.00425251, global = -0.000386967, cumulative = -0.0029373
ExecutionTime = 0.32 s  ClockTime = 1 s

forceCoeffs forceCoeffs execute:
    Coefficients
        Cd       : 0.0116849	(pressure: 0.00939261	viscous: 0.0022923)
        Cs       : 1.46487e-18	(pressure: 3.12785e-18	viscous: -1.66298e-18)
        Cl       : 0.0579507	(pressure: 0.0571842	viscous: 0.00076654)
        CmRoll       : -2.89754e-07	(pressure: -2.85921e-07	viscous: -3.8327e-09)
        CmPitch       : -0.000252019	(pressure: -0.000254489	viscous: 2.46931e-06)
        CmYaw       : 5.84246e-08	(pressure: 4.69631e-08	viscous: 1.14615e-08)
        Cd(f)    : 0.00584217
        Cd(r)    : 0.00584275
        Cs(f)    : 5.84246e-08
        Cs(r)    : -5.84246e-08
        Cl(f)    : 0.0287233
        Cl(r)    : 0.0292274
Time = 17

smoothSolver:  Solving for Ux, Initial residual = 0.021615, Final residual = 0.00199418, No Iterations 8
smoothSolver:  Solving for Uy, Initial residual = 0.0242466, Final residual = 0.00242394, No Iterations 7
GAMG:  Solving for p, Initial residual = 0.00742699, Final residual = 0.000625037, No Iterations 7
time step continuity errors : sum local = 0.00422059, global = -0.000298564, cumulative = -0.00323586
ExecutionTime = 0.32 s  ClockTime = 1 s

forceCoeffs forceCoeffs execute:
    Coefficients
        Cd       : 0.0117505	(pressure: 0.00946386	viscous: 0.00228669)
        Cs       : 1.43965e-18	(pressure: 3.06989e-18	viscous: -1.63024e-18)
        Cl       : 0.057238	(pressure: 0.0564782	viscous: 0.000759851)
        CmRoll       : -2.8619e-07	(pressure: -2.82391e-07	viscous: -3.79926e-09)
        CmPitch       : -0.000248715	(pressure: -0.000251203	viscous: 2.48765e-06)
        CmYaw       : 5.87527e-08	(pressure: 4.73193e-08	viscous: 1.14334e-08)
        Cd(f)    : 0.00587499
        Cd(r)    : 0.00587556
        Cs(f)    : 5.87527e-08
        Cs(r)    : -5.87527e-08
        Cl(f)    : 0.0283703
        Cl(r)    : 0.0288677
Time = 18

smoothSolver:  Solving for Ux, Initial residual = 0.0201331, Final residual = 0.00189743, No Iterations 8
smoothSolver:  Solving for Uy, Initial residual = 0.0235937, Final residual = 0.00195394, No Iterations 8
GAMG:  Solving for p, Initial residual = 0.00698609, Final residual = 0.000641201, No Iterations 7
time step continuity errors : sum local = 0.00434469, global = -0.000179688, cumulative = -0.00341555
ExecutionTime = 0.33 s  ClockTime = 1 s

forceCoeffs forceCoeffs execute:
    Coefficients
        Cd       : 0.0117924	(pressure: 0.00950957	viscous: 0.00228287)
        Cs       : 1.42097e-18	(pressure: 3.02345e-18	viscous: -1.60248e-18)
        Cl       : 0.0565872	(pressure: 0.0558335	viscous: 0.000753711)
        CmRoll       : -2.82936e-07	(pressure: -2.79167e-07	viscous: -3.76856e-09)
        CmPitch       : -0.000245681	(pressure: -0.000248187	viscous: 2.50626e-06)
        CmYaw       : 5.89622e-08	(pressure: 4.75479e-08	viscous: 1.14143e-08)
        Cd(f)    : 0.00589594
        Cd(r)    : 0.0058965
        Cs(f)    : 5.89622e-08
        Cs(r)    : -5.89622e-08
        Cl(f)    : 0.0280479
        Cl(r)    : 0.0285393
Time = 19

smoothSolver:  Solving for Ux, Initial residual = 0.018834, Final residual = 0.00181532, No Iterations 8
smoothSolver:  Solving for Uy, Initial residual = 0.0224132, Final residual = 0.0019159, No Iterations 8
GAMG:  Solving for p, Initial residual = 0.00656572, Final residual = 0.000580674, No Iterations 6
time step continuity errors : sum local = 0.00397, global = 1.2626e-05, cumulative = -0.00340293
ExecutionTime = 0.35 s  ClockTime = 1 s

forceCoeffs forceCoeffs execute:
    Coefficients
        Cd       : 0.0117834	(pressure: 0.00950473	viscous: 0.00227868)
        Cs       : 1.40477e-18	(pressure: 2.99294e-18	viscous: -1.58817e-18)
        Cl       : 0.0559969	(pressure: 0.0552485	viscous: 0.000748413)
        CmRoll       : -2.79984e-07	(pressure: -2.76242e-07	viscous: -3.74207e-09)
        CmPitch       : -0.00024285	(pressure: -0.000245372	viscous: 2.52179e-06)
        CmYaw       : 5.8917e-08	(pressure: 4.75236e-08	viscous: 1.13934e-08)
        Cd(f)    : 0.00589142
        Cd(r)    : 0.00589198
        Cs(f)    : 5.8917e-08
        Cs(r)    : -5.8917e-08
        Cl(f)    : 0.0277556
        Cl(r)    : 0.0282413
Time = 20

smoothSolver:  Solving for Ux, Initial residual = 0.0176205, Final residual = 0.0017485, No Iterations 8
smoothSolver:  Solving for Uy, Initial residual = 0.0211506, Final residual = 0.00189629, No Iterations 8
GAMG:  Solving for p, Initial residual = 0.00625001, Final residual = 0.000568736, No Iterations 6
time step continuity errors : sum local = 0.00393573, global = 7.02798e-05, cumulative = -0.00333265
ExecutionTime = 0.35 s  ClockTime = 1 s

forceCoeffs forceCoeffs execute:
    Coefficients
        Cd       : 0.0117493	(pressure: 0.00947754	viscous: 0.00227179)
        Cs       : 1.39463e-18	(pressure: 2.96997e-18	viscous: -1.57534e-18)
        Cl       : 0.0554202	(pressure: 0.0546762	viscous: 0.00074401)
        CmRoll       : -2.77101e-07	(pressure: -2.73381e-07	viscous: -3.72005e-09)
        CmPitch       : -0.000240008	(pressure: -0.000242537	viscous: 2.52897e-06)
        CmYaw       : 5.87467e-08	(pressure: 4.73877e-08	viscous: 1.1359e-08)
        Cd(f)    : 0.00587439
        Cd(r)    : 0.00587494
        Cs(f)    : 5.87467e-08
        Cs(r)    : -5.87467e-08
        Cl(f)    : 0.0274701
        Cl(r)    : 0.0279501
Time = 21

smoothSolver:  Solving for Ux, Initial residual = 0.0166883, Final residual = 0.00134731, No Iterations 9
smoothSolver:  Solving for Uy, Initial residual = 0.0201769, Final residual = 0.00186974, No Iterations 8
GAMG:  Solving for p, Initial residual = 0.00588228, Final residual = 0.000356751, No Iterations 8
time step continuity errors : sum local = 0.0025077, global = 3.84875e-05, cumulative = -0.00329416
ExecutionTime = 0.36 s  ClockTime = 1 s

forceCoeffs forceCoeffs execute:
    Coefficients
        Cd       : 0.0117055	(pressure: 0.00944147	viscous: 0.00226401)
        Cs       : 1.38828e-18	(pressure: 2.94936e-18	viscous: -1.56108e-18)
        Cl       : 0.0549128	(pressure: 0.0541713	viscous: 0.000741494)
        CmRoll       : -2.74564e-07	(pressure: -2.70856e-07	viscous: -3.70747e-09)
        CmPitch       : -0.000237556	(pressure: -0.000240074	viscous: 2.51851e-06)
        CmYaw       : 5.85274e-08	(pressure: 4.72073e-08	viscous: 1.132e-08)
        Cd(f)    : 0.00585246
        Cd(r)    : 0.00585301
        Cs(f)    : 5.85274e-08
        Cs(r)    : -5.85274e-08
        Cl(f)    : 0.0272188
        Cl(r)    : 0.027694
Time = 22

smoothSolver:  Solving for Ux, Initial residual = 0.0158346, Final residual = 0.00129543, No Iterations 9
smoothSolver:  Solving for Uy, Initial residual = 0.0194966, Final residual = 0.00184514, No Iterations 8
GAMG:  Solving for p, Initial residual = 0.00544069, Final residual = 0.000359153, No Iterations 8
time step continuity errors : sum local = 0.00257259, global = 8.90705e-06, cumulative = -0.00328525
ExecutionTime = 0.38 s  ClockTime = 1 s

forceCoeffs forceCoeffs execute:
    Coefficients
        Cd       : 0.0116328	(pressure: 0.0093784	viscous: 0.00225436)
        Cs       : 1.38006e-18	(pressure: 2.93564e-18	viscous: -1.55559e-18)
        Cl       : 0.0544364	(pressure: 0.0536972	viscous: 0.000739267)
        CmRoll       : -2.72182e-07	(pressure: -2.68486e-07	viscous: -3.69633e-09)
        CmPitch       : -0.000235206	(pressure: -0.000237711	viscous: 2.50445e-06)
        CmYaw       : 5.81638e-08	(pressure: 4.6892e-08	viscous: 1.12718e-08)
        Cd(f)    : 0.00581611
        Cd(r)    : 0.00581665
        Cs(f)    : 5.81638e-08
        Cs(r)    : -5.81638e-08
        Cl(f)    : 0.026983
        Cl(r)    : 0.0274534
Time = 23

smoothSolver:  Solving for Ux, Initial residual = 0.0148762, Final residual = 0.00124387, No Iterations 9
smoothSolver:  Solving for Uy, Initial residual = 0.0183732, Final residual = 0.00177762, No Iterations 8
GAMG:  Solving for p, Initial residual = 0.00503044, Final residual = 0.000375499, No Iterations 8
time step continuity errors : sum local = 0.00273039, global = -1.08293e-05, cumulative = -0.00329608
ExecutionTime = 0.39 s  ClockTime = 1 s

forceCoeffs forceCoeffs execute:
    Coefficients
        Cd       : 0.0115382	(pressure: 0.0092968	viscous: 0.00224144)
        Cs       : 1.37271e-18	(pressure: 2.92536e-18	viscous: -1.55264e-18)
        Cl       : 0.0539406	(pressure: 0.0532025	viscous: 0.000738056)
        CmRoll       : -2.69703e-07	(pressure: -2.66013e-07	viscous: -3.69028e-09)
        CmPitch       : -0.000232695	(pressure: -0.000235175	viscous: 2.47996e-06)
        CmYaw       : 5.76912e-08	(pressure: 4.6484e-08	viscous: 1.12072e-08)
        Cd(f)    : 0.00576885
        Cd(r)    : 0.00576939
        Cs(f)    : 5.76912e-08
        Cs(r)    : -5.76912e-08
        Cl(f)    : 0.0267376
        Cl(r)    : 0.027203
Time = 24

smoothSolver:  Solving for Ux, Initial residual = 0.0139889, Final residual = 0.00119508, No Iterations 9
smoothSolver:  Solving for Uy, Initial residual = 0.0174255, Final residual = 0.00172731, No Iterations 8
GAMG:  Solving for p, Initial residual = 0.0047081, Final residual = 0.000379532, No Iterations 8
time step continuity errors : sum local = 0.00279804, global = -3.31967e-05, cumulative = -0.00332928
ExecutionTime = 0.39 s  ClockTime = 1 s

forceCoeffs forceCoeffs execute:
    Coefficients
        Cd       : 0.0114413	(pressure: 0.00921456	viscous: 0.00222676)
        Cs       : 1.36666e-18	(pressure: 2.91517e-18	viscous: -1.54851e-18)
        Cl       : 0.0534654	(pressure: 0.0527268	viscous: 0.000738554)
        CmRoll       : -2.67327e-07	(pressure: -2.63634e-07	viscous: -3.69277e-09)
        CmPitch       : -0.000230303	(pressure: -0.000232741	viscous: 2.43802e-06)
        CmYaw       : 5.72066e-08	(pressure: 4.60728e-08	viscous: 1.11338e-08)
        Cd(f)    : 0.0057204
        Cd(r)    : 0.00572093
        Cs(f)    : 5.72066e-08
        Cs(r)    : -5.72066e-08
        Cl(f)    : 0.0265024
        Cl(r)    : 0.026963
Time = 25

smoothSolver:  Solving for Ux, Initial residual = 0.013137, Final residual = 0.00114648, No Iterations 9
smoothSolver:  Solving for Uy, Initial residual = 0.0165205, Final residual = 0.0013584, No Iterations 9
GAMG:  Solving for p, Initial residual = 0.00438403, Final residual = 0.000380323, No Iterations 8
time step continuity errors : sum local = 0.00284107, global = -6.26046e-05, cumulative = -0.00339188
ExecutionTime = 0.41 s  ClockTime = 1 s

forceCoeffs forceCoeffs execute:
    Coefficients
        Cd       : 0.0113495	(pressure: 0.00913813	viscous: 0.00221137)
        Cs       : 1.36048e-18	(pressure: 2.90412e-18	viscous: -1.54364e-18)
        Cl       : 0.0530103	(pressure: 0.0522707	viscous: 0.000739638)
        CmRoll       : -2.65052e-07	(pressure: -2.61354e-07	viscous: -3.69819e-09)
        CmPitch       : -0.000228034	(pressure: -0.000230424	viscous: 2.38992e-06)
        CmYaw       : 5.67475e-08	(pressure: 4.56906e-08	viscous: 1.10568e-08)
        Cd(f)    : 0.00567448
        Cd(r)    : 0.00567501
        Cs(f)    : 5.67475e-08
        Cs(r)    : -5.67475e-08
        Cl(f)    : 0.0262771
        Cl(r)    : 0.0267332
Time = 26

smoothSolver:  Solving for Ux, Initial residual = 0.0123507, Final residual = 0.00110092, No Iterations 9
smoothSolver:  Solving for Uy, Initial residual = 0.0156383, Final residual = 0.0012847, No Iterations 9
GAMG:  Solving for p, Initial residual = 0.00406073, Final residual = 0.000355455, No Iterations 8
time step continuity errors : sum local = 0.00268681, global = -8.41437e-05, cumulative = -0.00347603
ExecutionTime = 0.43 s  ClockTime = 1 s

forceCoeffs forceCoeffs execute:
    Coefficients
        Cd       : 0.0112627	(pressure: 0.00906679	viscous: 0.00219588)
        Cs       : 1.35384e-18	(pressure: 2.89226e-18	viscous: -1.53842e-18)
        Cl       : 0.0525718	(pressure: 0.0518306	viscous: 0.00074117)
        CmRoll       : -2.62859e-07	(pressure: -2.59153e-07	viscous: -3.70585e-09)
        CmPitch       : -0.00022586	(pressure: -0.000228198	viscous: 2.33842e-06)
        CmYaw       : 5.63134e-08	(pressure: 4.5334e-08	viscous: 1.09794e-08)
        Cd(f)    : 0.00563107
        Cd(r)    : 0.0056316
        Cs(f)    : 5.63134e-08
        Cs(r)    : -5.63134e-08
        Cl(f)    : 0.02606
        Cl(r)    : 0.0265118
Time = 27

smoothSolver:  Solving for Ux, Initial residual = 0.0115995, Final residual = 0.00105257, No Iterations 9
smoothSolver:  Solving for Uy, Initial residual = 0.0149438, Final residual = 0.00122761, No Iterations 9
GAMG:  Solving for p, Initial residual = 0.00379202, Final residual = 0.000327846, No Iterations 8
time step continuity errors : sum local = 0.00250362, global = -9.90699e-05, cumulative = -0.0035751
ExecutionTime = 0.43 s  ClockTime = 1 s

forceCoeffs forceCoeffs execute:
    Coefficients
        Cd       : 0.011181	(pressure: 0.0090004	viscous: 0.00218056)
        Cs       : 1.34681e-18	(pressure: 2.87973e-18	viscous: -1.53292e-18)
        Cl       : 0.0521367	(pressure: 0.0513938	viscous: 0.00074285)
        CmRoll       : -2.60683e-07	(pressure: -2.56969e-07	viscous: -3.71425e-09)
        CmPitch       : -0.000223701	(pressure: -0.000225986	viscous: 2.28579e-06)
        CmYaw       : 5.59048e-08	(pressure: 4.5002e-08	viscous: 1.09028e-08)
        Cd(f)    : 0.00559022
        Cd(r)    : 0.00559074
        Cs(f)    : 5.59048e-08
        Cs(r)    : -5.59048e-08
        Cl(f)    : 0.0258446
        Cl(r)    : 0.026292
Time = 28

smoothSolver:  Solving for Ux, Initial residual = 0.0108918, Final residual = 0.00100448, No Iterations 9
smoothSolver:  Solving for Uy, Initial residual = 0.0143063, Final residual = 0.00118546, No Iterations 9
GAMG:  Solving for p, Initial residual = 0.00358792, Final residual = 0.000298935, No Iterations 8
time step continuity errors : sum local = 0.00230292, global = -0.000107301, cumulative = -0.0036824
ExecutionTime = 0.44 s  ClockTime = 1 s

forceCoeffs forceCoeffs execute:
    Coefficients
        Cd       : 0.0111055	(pressure: 0.00893978	viscous: 0.00216569)
        Cs       : 1.33971e-18	(pressure: 2.86675e-18	viscous: -1.52704e-18)
        Cl       : 0.0517037	(pressure: 0.0509592	viscous: 0.000744536)
        CmRoll       : -2.58519e-07	(pressure: -2.54796e-07	viscous: -3.72268e-09)
        CmPitch       : -0.000221546	(pressure: -0.00022378	viscous: 2.23375e-06)
        CmYaw       : 5.55273e-08	(pressure: 4.46989e-08	viscous: 1.08284e-08)
        Cd(f)    : 0.00555248
        Cd(r)    : 0.00555299
        Cs(f)    : 5.55273e-08
        Cs(r)    : -5.55273e-08
        Cl(f)    : 0.0256303
        Cl(r)    : 0.0260734
Time = 29

smoothSolver:  Solving for Ux, Initial residual = 0.0102693, Final residual = 0.000958266, No Iterations 9
smoothSolver:  Solving for Uy, Initial residual = 0.0137294, Final residual = 0.00114759, No Iterations 9
GAMG:  Solving for p, Initial residual = 0.00345219, Final residual = 0.000274178, No Iterations 8
time step continuity errors : sum local = 0.00212824, global = -0.000111046, cumulative = -0.00379344
ExecutionTime = 0.46 s  ClockTime = 1 s

forceCoeffs forceCoeffs execute:
    Coefficients
        Cd       : 0.0110363	(pressure: 0.00888479	viscous: 0.0021515)
        Cs       : 1.3328e-18	(pressure: 2.85366e-18	viscous: -1.52086e-18)
        Cl       : 0.0512727	(pressure: 0.0505267	viscous: 0.00074599)
        CmRoll       : -2.56364e-07	(pressure: -2.52634e-07	viscous: -3.72995e-09)
        CmPitch       : -0.000219395	(pressure: -0.000221579	viscous: 2.18482e-06)
        CmYaw       : 5.51815e-08	(pressure: 4.44239e-08	viscous: 1.07575e-08)
        Cd(f)    : 0.00551789
        Cd(r)    : 0.0055184
        Cs(f)    : 5.51815e-08
        Cs(r)    : -5.51815e-08
        Cl(f)    : 0.025417
        Cl(r)    : 0.0258557
Time = 30

smoothSolver:  Solving for Ux, Initial residual = 0.00973786, Final residual = 0.000915926, No Iterations 9
smoothSolver:  Solving for Uy, Initial residual = 0.0133322, Final residual = 0.00110732, No Iterations 9
GAMG:  Solving for p, Initial residual = 0.00333479, Final residual = 0.000255961, No Iterations 8
time step continuity errors : sum local = 0.00199991, global = -0.00011251, cumulative = -0.00390595
ExecutionTime = 0.46 s  ClockTime = 1 s

forceCoeffs forceCoeffs execute:
    Coefficients
        Cd       : 0.0109719	(pressure: 0.00883383	viscous: 0.00213809)
        Cs       : 1.32635e-18	(pressure: 2.84099e-18	viscous: -1.51464e-18)
        Cl       : 0.0508472	(pressure: 0.0501001	viscous: 0.000747078)
        CmRoll       : -2.54236e-07	(pressure: -2.50501e-07	viscous: -3.73539e-09)
        CmPitch       : -0.000217266	(pressure: -0.000219406	viscous: 2.14045e-06)
        CmYaw       : 5.48596e-08	(pressure: 4.41691e-08	viscous: 1.06904e-08)
        Cd(f)    : 0.0054857
        Cd(r)    : 0.00548621
        Cs(f)    : 5.48596e-08
        Cs(r)    : -5.48596e-08
        Cl(f)    : 0.0252063
        Cl(r)    : 0.0256409
Time = 31

smoothSolver:  Solving for Ux, Initial residual = 0.00930215, Final residual = 0.000878153, No Iterations 9
smoothSolver:  Solving for Uy, Initial residual = 0.0130432, Final residual = 0.00106521, No Iterations 9
GAMG:  Solving for p, Initial residual = 0.00324251, Final residual = 0.000243742, No Iterations 8
time step continuity errors : sum local = 0.00191595, global = -0.000112465, cumulative = -0.00401842
ExecutionTime = 0.47 s  ClockTime = 1 s

forceCoeffs forceCoeffs execute:
    Coefficients
        Cd       : 0.0109099	(pressure: 0.00878458	viscous: 0.00212535)
        Cs       : 1.32038e-18	(pressure: 2.82924e-18	viscous: -1.50886e-18)
        Cl       : 0.0504297	(pressure: 0.0496819	viscous: 0.00074782)
        CmRoll       : -2.52149e-07	(pressure: -2.4841e-07	viscous: -3.7391e-09)
        CmPitch       : -0.000215174	(pressure: -0.000217274	viscous: 2.10045e-06)
        CmYaw       : 5.45496e-08	(pressure: 4.39229e-08	viscous: 1.06267e-08)
        Cd(f)    : 0.00545471
        Cd(r)    : 0.00545522
        Cs(f)    : 5.45496e-08
        Cs(r)    : -5.45496e-08
        Cl(f)    : 0.0249997
        Cl(r)    : 0.02543
Time = 32

smoothSolver:  Solving for Ux, Initial residual = 0.00891986, Final residual = 0.000845302, No Iterations 9
smoothSolver:  Solving for Uy, Initial residual = 0.012743, Final residual = 0.00127051, No Iterations 8
GAMG:  Solving for p, Initial residual = 0.00317167, Final residual = 0.000232881, No Iterations 8
time step continuity errors : sum local = 0.00184105, global = -0.000108754, cumulative = -0.00412717
ExecutionTime = 0.49 s  ClockTime = 1 s

forceCoeffs forceCoeffs execute:
    Coefficients
        Cd       : 0.0108467	(pressure: 0.00873371	viscous: 0.00211301)
        Cs       : 1.31482e-18	(pressure: 2.81893e-18	viscous: -1.50412e-18)
        Cl       : 0.0500212	(pressure: 0.0492729	viscous: 0.000748333)
        CmRoll       : -2.50106e-07	(pressure: -2.46364e-07	viscous: -3.74166e-09)
        CmPitch       : -0.000213121	(pressure: -0.000215185	viscous: 2.06373e-06)
        CmYaw       : 5.42336e-08	(pressure: 4.36686e-08	viscous: 1.05651e-08)
        Cd(f)    : 0.00542311
        Cd(r)    : 0.00542361
        Cs(f)    : 5.42336e-08
        Cs(r)    : -5.42336e-08
        Cl(f)    : 0.0247975
        Cl(r)    : 0.0252237
Time = 33

smoothSolver:  Solving for Ux, Initial residual = 0.00857739, Final residual = 0.000814902, No Iterations 9
smoothSolver:  Solving for Uy, Initial residual = 0.0125301, Final residual = 0.00102508, No Iterations 9
GAMG:  Solving for p, Initial residual = 0.00311513, Final residual = 0.000240925, No Iterations 8
time step continuity errors : sum local = 0.00191528, global = -0.000110496, cumulative = -0.00423767
ExecutionTime = 0.49 s  ClockTime = 1 s

forceCoeffs forceCoeffs execute:
    Coefficients
        Cd       : 0.0107843	(pressure: 0.00868334	viscous: 0.00210092)
        Cs       : 1.31009e-18	(pressure: 2.80944e-18	viscous: -1.49935e-18)
        Cl       : 0.0496263	(pressure: 0.0488774	viscous: 0.000748901)
        CmRoll       : -2.48132e-07	(pressure: -2.44387e-07	viscous: -3.7445e-09)
        CmPitch       : -0.000211144	(pressure: -0.000213171	viscous: 2.02654e-06)
        CmYaw       : 5.39213e-08	(pressure: 4.34167e-08	viscous: 1.05046e-08)
        Cd(f)    : 0.00539188
        Cd(r)    : 0.00539238
        Cs(f)    : 5.39213e-08
        Cs(r)    : -5.39213e-08
        Cl(f)    : 0.024602
        Cl(r)    : 0.0250243
Time = 34

smoothSolver:  Solving for Ux, Initial residual = 0.00827269, Final residual = 0.000791116, No Iterations 9
smoothSolver:  Solving for Uy, Initial residual = 0.0120979, Final residual = 0.000988151, No Iterations 9
GAMG:  Solving for p, Initial residual = 0.00307256, Final residual = 0.000241717, No Iterations 8
time step continuity errors : sum local = 0.00193209, global = -0.000108247, cumulative = -0.00434591
ExecutionTime = 0.5 s  ClockTime = 1 s

forceCoeffs forceCoeffs execute:
    Coefficients
        Cd       : 0.0107214	(pressure: 0.0086324	viscous: 0.00208905)
        Cs       : 1.30573e-18	(pressure: 2.80085e-18	viscous: -1.49512e-18)
        Cl       : 0.0492475	(pressure: 0.0484979	viscous: 0.000749621)
        CmRoll       : -2.46238e-07	(pressure: -2.4249e-07	viscous: -3.7481e-09)
        CmPitch       : -0.000209253	(pressure: -0.000211242	viscous: 1.98928e-06)
        CmYaw       : 5.36072e-08	(pressure: 4.3162e-08	viscous: 1.04452e-08)
        Cd(f)    : 0.00536048
        Cd(r)    : 0.00536097
        Cs(f)    : 5.36072e-08
        Cs(r)    : -5.36072e-08
        Cl(f)    : 0.0244145
        Cl(r)    : 0.024833
Time = 35

smoothSolver:  Solving for Ux, Initial residual = 0.00797736, Final residual = 0.000770189, No Iterations 9
smoothSolver:  Solving for Uy, Initial residual = 0.0117058, Final residual = 0.000954862, No Iterations 9
GAMG:  Solving for p, Initial residual = 0.00301001, Final residual = 0.000243953, No Iterations 8
time step continuity errors : sum local = 0.00196054, global = -0.000105148, cumulative = -0.00445106
ExecutionTime = 0.5 s  ClockTime = 1 s

forceCoeffs forceCoeffs execute:
    Coefficients
        Cd       : 0.0106577	(pressure: 0.00858041	viscous: 0.00207729)
        Cs       : 1.30172e-18	(pressure: 2.79285e-18	viscous: -1.49113e-18)
        Cl       : 0.0488819	(pressure: 0.0481314	viscous: 0.000750504)
        CmRoll       : -2.4441e-07	(pressure: -2.40657e-07	viscous: -3.75252e-09)
        CmPitch       : -0.000207431	(pressure: -0.000209382	viscous: 1.95102e-06)
        CmYaw       : 5.32885e-08	(pressure: 4.2902e-08	viscous: 1.03865e-08)
        Cd(f)    : 0.00532861
        Cd(r)    : 0.00532909
        Cs(f)    : 5.32885e-08
        Cs(r)    : -5.32885e-08
        Cl(f)    : 0.0242335
        Cl(r)    : 0.0246484
Time = 36

smoothSolver:  Solving for Ux, Initial residual = 0.00769865, Final residual = 0.000751225, No Iterations 9
smoothSolver:  Solving for Uy, Initial residual = 0.0114149, Final residual = 0.000924925, No Iterations 9
GAMG:  Solving for p, Initial residual = 0.00291864, Final residual = 0.000245949, No Iterations 8
time step continuity errors : sum local = 0.00198727, global = -0.000101178, cumulative = -0.00455224
ExecutionTime = 0.52 s  ClockTime = 1 s

forceCoeffs forceCoeffs execute:
    Coefficients
        Cd       : 0.0105934	(pressure: 0.00852782	viscous: 0.00206563)
        Cs       : 1.29791e-18	(pressure: 2.78502e-18	viscous: -1.48711e-18)
        Cl       : 0.048526	(pressure: 0.0477743	viscous: 0.000751659)
        CmRoll       : -2.4263e-07	(pressure: -2.38872e-07	viscous: -3.75829e-09)
        CmPitch       : -0.000205661	(pressure: -0.000207571	viscous: 1.91084e-06)
        CmYaw       : 5.29672e-08	(pressure: 4.26391e-08	viscous: 1.03281e-08)
        Cd(f)    : 0.00529648
        Cd(r)    : 0.00529697
        Cs(f)    : 5.29672e-08
        Cs(r)    : -5.29672e-08
        Cl(f)    : 0.0240573
        Cl(r)    : 0.0244686
Time = 37

smoothSolver:  Solving for Ux, Initial residual = 0.00743357, Final residual = 0.000733754, No Iterations 9
smoothSolver:  Solving for Uy, Initial residual = 0.0111192, Final residual = 0.00111186, No Iterations 8
GAMG:  Solving for p, Initial residual = 0.00280758, Final residual = 0.000242589, No Iterations 8
time step continuity errors : sum local = 0.00197036, global = -9.46038e-05, cumulative = -0.00464684
ExecutionTime = 0.53 s  ClockTime = 1 s

forceCoeffs forceCoeffs execute:
    Coefficients
        Cd       : 0.010529	(pressure: 0.00847491	viscous: 0.00205408)
        Cs       : 1.29411e-18	(pressure: 2.77718e-18	viscous: -1.48307e-18)
        Cl       : 0.048178	(pressure: 0.047425	viscous: 0.000753021)
        CmRoll       : -2.4089e-07	(pressure: -2.37125e-07	viscous: -3.76511e-09)
        CmPitch       : -0.00020393	(pressure: -0.0002058	viscous: 1.86949e-06)
        CmYaw       : 5.2645e-08	(pressure: 4.23745e-08	viscous: 1.02704e-08)
        Cd(f)    : 0.00526425
        Cd(r)    : 0.00526474
        Cs(f)    : 5.2645e-08
        Cs(r)    : -5.2645e-08
        Cl(f)    : 0.0238851
        Cl(r)    : 0.0242929
Time = 38

smoothSolver:  Solving for Ux, Initial residual = 0.00716918, Final residual = 0.000716065, No Iterations 9
smoothSolver:  Solving for Uy, Initial residual = 0.0109195, Final residual = 0.000889274, No Iterations 9
GAMG:  Solving for p, Initial residual = 0.00270594, Final residual = 0.000246523, No Iterations 8
time step continuity errors : sum local = 0.00201247, global = -9.30325e-05, cumulative = -0.00473988
ExecutionTime = 0.53 s  ClockTime = 1 s

forceCoeffs forceCoeffs execute:
    Coefficients
        Cd       : 0.0104681	(pressure: 0.0084253	viscous: 0.00204284)
        Cs       : 1.29061e-18	(pressure: 2.76863e-18	viscous: -1.47802e-18)
        Cl       : 0.0478405	(pressure: 0.047086	viscous: 0.000754494)
        CmRoll       : -2.39203e-07	(pressure: -2.3543e-07	viscous: -3.77247e-09)
        CmPitch       : -0.000202262	(pressure: -0.000204089	viscous: 1.82723e-06)
        CmYaw       : 5.23407e-08	(pressure: 4.21265e-08	viscous: 1.02142e-08)
        Cd(f)    : 0.00523383
        Cd(r)    : 0.00523431
        Cs(f)    : 5.23407e-08
        Cs(r)    : -5.23407e-08
        Cl(f)    : 0.023718
        Cl(r)    : 0.0241225
Time = 39

smoothSolver:  Solving for Ux, Initial residual = 0.0069259, Final residual = 0.000576995, No Iterations 10
smoothSolver:  Solving for Uy, Initial residual = 0.0105121, Final residual = 0.000861442, No Iterations 9
GAMG:  Solving for p, Initial residual = 0.0026178, Final residual = 0.000245093, No Iterations 8
time step continuity errors : sum local = 0.0020107, global = -9.03725e-05, cumulative = -0.00483025
ExecutionTime = 0.55 s  ClockTime = 1 s

forceCoeffs forceCoeffs execute:
    Coefficients
        Cd       : 0.010404	(pressure: 0.00837234	viscous: 0.00203169)
        Cs       : 1.28642e-18	(pressure: 2.76033e-18	viscous: -1.47391e-18)
        Cl       : 0.0474975	(pressure: 0.0467415	viscous: 0.000755992)
        CmRoll       : -2.37487e-07	(pressure: -2.33707e-07	viscous: -3.77996e-09)
        CmPitch       : -0.000200552	(pressure: -0.000202337	viscous: 1.7856e-06)
        CmYaw       : 5.20202e-08	(pressure: 4.18617e-08	viscous: 1.01585e-08)
        Cd(f)    : 0.00520178
        Cd(r)    : 0.00520225
        Cs(f)    : 5.20202e-08
        Cs(r)    : -5.20202e-08
        Cl(f)    : 0.0235482
        Cl(r)    : 0.0239493
Time = 40

smoothSolver:  Solving for Ux, Initial residual = 0.00671202, Final residual = 0.000562624, No Iterations 10
smoothSolver:  Solving for Uy, Initial residual = 0.0102808, Final residual = 0.000851685, No Iterations 9
GAMG:  Solving for p, Initial residual = 0.00253739, Final residual = 0.000242476, No Iterations 8
time step continuity errors : sum local = 0.00199796, global = -8.88258e-05, cumulative = -0.00491907
ExecutionTime = 0.57 s  ClockTime = 1 s

forceCoeffs forceCoeffs execute:
    Coefficients
        Cd       : 0.0103433	(pressure: 0.00832249	viscous: 0.00202077)
        Cs       : 1.28256e-18	(pressure: 2.7516e-18	viscous: -1.46904e-18)
        Cl       : 0.0471578	(pressure: 0.0464004	viscous: 0.000757395)
        CmRoll       : -2.35789e-07	(pressure: -2.32002e-07	viscous: -3.78698e-09)
        CmPitch       : -0.000198861	(pressure: -0.000200606	viscous: 1.7451e-06)
        CmYaw       : 5.17163e-08	(pressure: 4.16124e-08	viscous: 1.01039e-08)
        Cd(f)    : 0.0051714
        Cd(r)    : 0.00517187
        Cs(f)    : 5.17163e-08
        Cs(r)    : -5.17163e-08
        Cl(f)    : 0.0233801
        Cl(r)    : 0.0237778
Time = 41

smoothSolver:  Solving for Ux, Initial residual = 0.0065169, Final residual = 0.000549544, No Iterations 10
smoothSolver:  Solving for Uy, Initial residual = 0.0100244, Final residual = 0.000836444, No Iterations 9
GAMG:  Solving for p, Initial residual = 0.00249931, Final residual = 0.000240329, No Iterations 8
time step continuity errors : sum local = 0.00198876, global = -8.73673e-05, cumulative = -0.00500644
ExecutionTime = 0.57 s  ClockTime = 1 s

forceCoeffs forceCoeffs execute:
    Coefficients
        Cd       : 0.010289	(pressure: 0.00827854	viscous: 0.0020105)
        Cs       : 1.27898e-18	(pressure: 2.74244e-18	viscous: -1.46346e-18)
        Cl       : 0.0468315	(pressure: 0.0460729	viscous: 0.000758659)
        CmRoll       : -2.34158e-07	(pressure: -2.30364e-07	viscous: -3.7933e-09)
        CmPitch       : -0.000197248	(pressure: -0.000198955	viscous: 1.70699e-06)
        CmYaw       : 5.14452e-08	(pressure: 4.13927e-08	viscous: 1.00525e-08)
        Cd(f)    : 0.00514429
        Cd(r)    : 0.00514475
        Cs(f)    : 5.14452e-08
        Cs(r)    : -5.14452e-08
        Cl(f)    : 0.0232185
        Cl(r)    : 0.023613
Time = 42

smoothSolver:  Solving for Ux, Initial residual = 0.00633155, Final residual = 0.000537474, No Iterations 10
smoothSolver:  Solving for Uy, Initial residual = 0.00972995, Final residual = 0.000815762, No Iterations 9
GAMG:  Solving for p, Initial residual = 0.00246991, Final residual = 0.000239561, No Iterations 8
time step continuity errors : sum local = 0.00199095, global = -8.63666e-05, cumulative = -0.00509281
ExecutionTime = 0.58 s  ClockTime = 1 s

forceCoeffs forceCoeffs execute:
    Coefficients
        Cd       : 0.0102394	(pressure: 0.00823849	viscous: 0.00200095)
        Cs       : 1.27533e-18	(pressure: 2.73336e-18	viscous: -1.45803e-18)
        Cl       : 0.0465169	(pressure: 0.0457573	viscous: 0.000759601)
        CmRoll       : -2.32585e-07	(pressure: -2.28787e-07	viscous: -3.79801e-09)
        CmPitch       : -0.000195698	(pressure: -0.000197372	viscous: 1.67316e-06)
        CmYaw       : 5.11972e-08	(pressure: 4.11925e-08	viscous: 1.00048e-08)
        Cd(f)    : 0.00511949
        Cd(r)    : 0.00511996
        Cs(f)    : 5.11972e-08
        Cs(r)    : -5.11972e-08
        Cl(f)    : 0.0230628
        Cl(r)    : 0.0234542
Time = 43

smoothSolver:  Solving for Ux, Initial residual = 0.00615839, Final residual = 0.000526389, No Iterations 10
smoothSolver:  Solving for Uy, Initial residual = 0.00946712, Final residual = 0.000792954, No Iterations 9
GAMG:  Solving for p, Initial residual = 0.00243282, Final residual = 0.000239445, No Iterations 8
time step continuity errors : sum local = 0.00199829, global = -8.54117e-05, cumulative = -0.00517822
ExecutionTime = 0.6 s  ClockTime = 1 s

forceCoeffs forceCoeffs execute:
    Coefficients
        Cd       : 0.0101922	(pressure: 0.00820028	viscous: 0.00199195)
        Cs       : 1.27164e-18	(pressure: 2.72475e-18	viscous: -1.45311e-18)
        Cl       : 0.0462107	(pressure: 0.0454505	viscous: 0.00076027)
        CmRoll       : -2.31054e-07	(pressure: -2.27252e-07	viscous: -3.80135e-09)
        CmPitch       : -0.00019419	(pressure: -0.000195833	viscous: 1.64294e-06)
        CmYaw       : 5.09612e-08	(pressure: 4.10014e-08	viscous: 9.95973e-09)
        Cd(f)    : 0.00509588
        Cd(r)    : 0.00509635
        Cs(f)    : 5.09612e-08
        Cs(r)    : -5.09612e-08
        Cl(f)    : 0.0229112
        Cl(r)    : 0.0232996
Time = 44

smoothSolver:  Solving for Ux, Initial residual = 0.00600071, Final residual = 0.000516199, No Iterations 10
smoothSolver:  Solving for Uy, Initial residual = 0.00924985, Final residual = 0.000769999, No Iterations 9
GAMG:  Solving for p, Initial residual = 0.00238775, Final residual = 0.000237793, No Iterations 8
time step continuity errors : sum local = 0.00199228, global = -8.39596e-05, cumulative = -0.00526218
ExecutionTime = 0.6 s  ClockTime = 1 s

forceCoeffs forceCoeffs execute:
    Coefficients
        Cd       : 0.0101463	(pressure: 0.00816298	viscous: 0.0019833)
        Cs       : 1.268e-18	(pressure: 2.71679e-18	viscous: -1.44879e-18)
        Cl       : 0.0459119	(pressure: 0.0451511	viscous: 0.000760766)
        CmRoll       : -2.29559e-07	(pressure: -2.25755e-07	viscous: -3.80383e-09)
        CmPitch       : -0.000192716	(pressure: -0.000194331	viscous: 1.61512e-06)
        CmYaw       : 5.07314e-08	(pressure: 4.08149e-08	viscous: 9.91648e-09)
        Cd(f)    : 0.00507291
        Cd(r)    : 0.00507337
        Cs(f)    : 5.07314e-08
        Cs(r)    : -5.07314e-08
        Cl(f)    : 0.0227632
        Cl(r)    : 0.0231486
Time = 45

smoothSolver:  Solving for Ux, Initial residual = 0.00585515, Final residual = 0.000506847, No Iterations 10
smoothSolver:  Solving for Uy, Initial residual = 0.00903358, Final residual = 0.000747975, No Iterations 9
GAMG:  Solving for p, Initial residual = 0.00232802, Final residual = 0.000195982, No Iterations 9
time step continuity errors : sum local = 0.00164814, global = 5.96441e-06, cumulative = -0.00525622
ExecutionTime = 0.61 s  ClockTime = 1 s

forceCoeffs forceCoeffs execute:
    Coefficients
        Cd       : 0.0101022	(pressure: 0.00812732	viscous: 0.00197491)
        Cs       : 1.26451e-18	(pressure: 2.70887e-18	viscous: -1.44436e-18)
        Cl       : 0.0456169	(pressure: 0.0448558	viscous: 0.00076116)
        CmRoll       : -2.28085e-07	(pressure: -2.24279e-07	viscous: -3.8058e-09)
        CmPitch       : -0.000191262	(pressure: -0.000192851	viscous: 1.58897e-06)
        CmYaw       : 5.05112e-08	(pressure: 4.06366e-08	viscous: 9.87456e-09)
        Cd(f)    : 0.00505089
        Cd(r)    : 0.00505135
        Cs(f)    : 5.05112e-08
        Cs(r)    : -5.05112e-08
        Cl(f)    : 0.0226172
        Cl(r)    : 0.0229997
Time = 46

smoothSolver:  Solving for Ux, Initial residual = 0.00577443, Final residual = 0.000497961, No Iterations 10
smoothSolver:  Solving for Uy, Initial residual = 0.0088466, Final residual = 0.000729475, No Iterations 9
GAMG:  Solving for p, Initial residual = 0.00222107, Final residual = 0.000155628, No Iterations 9
time step continuity errors : sum local = 0.00131376, global = -2.45364e-05, cumulative = -0.00528075
ExecutionTime = 0.63 s  ClockTime = 1 s

forceCoeffs forceCoeffs execute:
    Coefficients
        Cd       : 0.0100591	(pressure: 0.00809237	viscous: 0.00196676)
        Cs       : 1.26091e-18	(pressure: 2.70209e-18	viscous: -1.44118e-18)
        Cl       : 0.0453361	(pressure: 0.0445746	viscous: 0.000761483)
        CmRoll       : -2.2668e-07	(pressure: -2.22873e-07	viscous: -3.80742e-09)
        CmPitch       : -0.000189874	(pressure: -0.000191438	viscous: 1.564e-06)
        CmYaw       : 5.02956e-08	(pressure: 4.04618e-08	viscous: 9.83378e-09)
        Cd(f)    : 0.00502933
        Cd(r)    : 0.00502979
        Cs(f)    : 5.02956e-08
        Cs(r)    : -5.02956e-08
        Cl(f)    : 0.0224782
        Cl(r)    : 0.0228579
Time = 47

smoothSolver:  Solving for Ux, Initial residual = 0.00560513, Final residual = 0.000489284, No Iterations 10
smoothSolver:  Solving for Uy, Initial residual = 0.00858481, Final residual = 0.000715819, No Iterations 9
GAMG:  Solving for p, Initial residual = 0.00215242, Final residual = 0.000143428, No Iterations 9
time step continuity errors : sum local = 0.00121458, global = -2.28958e-05, cumulative = -0.00530365
ExecutionTime = 0.64 s  ClockTime = 1 s

forceCoeffs forceCoeffs execute:
    Coefficients
        Cd       : 0.0100171	(pressure: 0.00805843	viscous: 0.00195868)
        Cs       : 1.25766e-18	(pressure: 2.69565e-18	viscous: -1.43799e-18)
        Cl       : 0.0450576	(pressure: 0.0442959	viscous: 0.000761688)
        CmRoll       : -2.25288e-07	(pressure: -2.2148e-07	viscous: -3.80844e-09)
        CmPitch       : -0.000188491	(pressure: -0.000190031	viscous: 1.54062e-06)
        CmYaw       : 5.00856e-08	(pressure: 4.02922e-08	viscous: 9.79342e-09)
        Cd(f)    : 0.00500833
        Cd(r)    : 0.00500878
        Cs(f)    : 5.00856e-08
        Cs(r)    : -5.00856e-08
        Cl(f)    : 0.0223403
        Cl(r)    : 0.0227173
Time = 48

smoothSolver:  Solving for Ux, Initial residual = 0.0054546, Final residual = 0.000481715, No Iterations 10
smoothSolver:  Solving for Uy, Initial residual = 0.00834904, Final residual = 0.000703404, No Iterations 9
GAMG:  Solving for p, Initial residual = 0.00210231, Final residual = 0.0002078, No Iterations 8
time step continuity errors : sum local = 0.00176507, global = -2.62538e-05, cumulative = -0.0053299
ExecutionTime = 0.64 s  ClockTime = 1 s

forceCoeffs forceCoeffs execute:
    Coefficients
        Cd       : 0.00997605	(pressure: 0.00802524	viscous: 0.00195081)
        Cs       : 1.25447e-18	(pressure: 2.68994e-18	viscous: -1.43547e-18)
        Cl       : 0.0447901	(pressure: 0.0440282	viscous: 0.000761944)
        CmRoll       : -2.23951e-07	(pressure: -2.20141e-07	viscous: -3.80972e-09)
        CmPitch       : -0.00018716	(pressure: -0.000188677	viscous: 1.51742e-06)
        CmYaw       : 4.98802e-08	(pressure: 4.01262e-08	viscous: 9.75404e-09)
        Cd(f)    : 0.0049878
        Cd(r)    : 0.00498825
        Cs(f)    : 4.98802e-08
        Cs(r)    : -4.98802e-08
        Cl(f)    : 0.0222079
        Cl(r)    : 0.0225822
Time = 49

smoothSolver:  Solving for Ux, Initial residual = 0.00532331, Final residual = 0.000475403, No Iterations 10
smoothSolver:  Solving for Uy, Initial residual = 0.00810199, Final residual = 0.00069224, No Iterations 9
GAMG:  Solving for p, Initial residual = 0.00208026, Final residual = 0.000126281, No Iterations 9
time step continuity errors : sum local = 0.00107575, global = -3.8216e-05, cumulative = -0.00536812
ExecutionTime = 0.65 s  ClockTime = 1 s

forceCoeffs forceCoeffs execute:
    Coefficients
        Cd       : 0.0099363	(pressure: 0.00799322	viscous: 0.00194308)
        Cs       : 1.25138e-18	(pressure: 2.68369e-18	viscous: -1.43231e-18)
        Cl       : 0.0445133	(pressure: 0.0437512	viscous: 0.000762091)
        CmRoll       : -2.22567e-07	(pressure: -2.18756e-07	viscous: -3.81045e-09)
        CmPitch       : -0.00018578	(pressure: -0.000187276	viscous: 1.49579e-06)
        CmYaw       : 4.96815e-08	(pressure: 3.99661e-08	viscous: 9.71539e-09)
        Cd(f)    : 0.00496793
        Cd(r)    : 0.00496837
        Cs(f)    : 4.96815e-08
        Cs(r)    : -4.96815e-08
        Cl(f)    : 0.0220709
        Cl(r)    : 0.0224424
Time = 50

smoothSolver:  Solving for Ux, Initial residual = 0.00521091, Final residual = 0.000466971, No Iterations 10
smoothSolver:  Solving for Uy, Initial residual = 0.00791046, Final residual = 0.000679338, No Iterations 9
GAMG:  Solving for p, Initial residual = 0.00201638, Final residual = 0.000192697, No Iterations 8
time step continuity errors : sum local = 0.00164546, global = -1.00788e-05, cumulative = -0.0053782
ExecutionTime = 0.67 s  ClockTime = 1 s

forceCoeffs forceCoeffs execute:
    Coefficients
        Cd       : 0.00989984	(pressure: 0.00796423	viscous: 0.00193562)
        Cs       : 1.24823e-18	(pressure: 2.67808e-18	viscous: -1.42985e-18)
        Cl       : 0.0442586	(pressure: 0.0434964	viscous: 0.000762188)
        CmRoll       : -2.21293e-07	(pressure: -2.17482e-07	viscous: -3.81094e-09)
        CmPitch       : -0.000184516	(pressure: -0.000185991	viscous: 1.47497e-06)
        CmYaw       : 4.94992e-08	(pressure: 3.98211e-08	viscous: 9.67808e-09)
        Cd(f)    : 0.0049497
        Cd(r)    : 0.00495014
        Cs(f)    : 4.94992e-08
        Cs(r)    : -4.94992e-08
        Cl(f)    : 0.0219448
        Cl(r)    : 0.0223138
Time = 51

smoothSolver:  Solving for Ux, Initial residual = 0.00510671, Final residual = 0.0004613, No Iterations 10
smoothSolver:  Solving for Uy, Initial residual = 0.00769586, Final residual = 0.000666884, No Iterations 9
GAMG:  Solving for p, Initial residual = 0.00197874, Final residual = 0.000193291, No Iterations 8
time step continuity errors : sum local = 0.00165498, global = -2.45736e-06, cumulative = -0.00538065
ExecutionTime = 0.69 s  ClockTime = 1 s

forceCoeffs forceCoeffs execute:
    Coefficients
        Cd       : 0.00986453	(pressure: 0.00793615	viscous: 0.00192838)
        Cs       : 1.24519e-18	(pressure: 2.67242e-18	viscous: -1.42723e-18)
        Cl       : 0.0439993	(pressure: 0.0432373	viscous: 0.000762072)
        CmRoll       : -2.19997e-07	(pressure: -2.16186e-07	viscous: -3.81036e-09)
        CmPitch       : -0.000183222	(pressure: -0.000184679	viscous: 1.45679e-06)
        CmYaw       : 4.93226e-08	(pressure: 3.96807e-08	viscous: 9.64188e-09)
        Cd(f)    : 0.00493204
        Cd(r)    : 0.00493248
        Cs(f)    : 4.93226e-08
        Cs(r)    : -4.93226e-08
        Cl(f)    : 0.0218165
        Cl(r)    : 0.0221829
Time = 52

smoothSolver:  Solving for Ux, Initial residual = 0.00500296, Final residual = 0.00045426, No Iterations 10
smoothSolver:  Solving for Uy, Initial residual = 0.00753828, Final residual = 0.000653233, No Iterations 9
GAMG:  Solving for p, Initial residual = 0.00192272, Final residual = 0.000190332, No Iterations 7
time step continuity errors : sum local = 0.00163336, global = -6.15039e-05, cumulative = -0.00544216
ExecutionTime = 0.7 s  ClockTime = 1 s

forceCoeffs forceCoeffs execute:
    Coefficients
        Cd       : 0.00983178	(pressure: 0.00791037	viscous: 0.00192141)
        Cs       : 1.24216e-18	(pressure: 2.66696e-18	viscous: -1.4248e-18)
        Cl       : 0.0437527	(pressure: 0.0429907	viscous: 0.000761938)
        CmRoll       : -2.18763e-07	(pressure: -2.14954e-07	viscous: -3.80969e-09)
        CmPitch       : -0.000181993	(pressure: -0.000183432	viscous: 1.43934e-06)
        CmYaw       : 4.91589e-08	(pressure: 3.95518e-08	viscous: 9.60706e-09)
        Cd(f)    : 0.00491567
        Cd(r)    : 0.00491611
        Cs(f)    : 4.91589e-08
        Cs(r)    : -4.91589e-08
        Cl(f)    : 0.0216943
        Cl(r)    : 0.0220583
Time = 53

smoothSolver:  Solving for Ux, Initial residual = 0.0049039, Final residual = 0.000447258, No Iterations 10
smoothSolver:  Solving for Uy, Initial residual = 0.00736415, Final residual = 0.000638717, No Iterations 9
GAMG:  Solving for p, Initial residual = 0.00186332, Final residual = 0.000183501, No Iterations 7
time step continuity errors : sum local = 0.00157767, global = -5.28886e-05, cumulative = -0.00549505
ExecutionTime = 0.7 s  ClockTime = 1 s

forceCoeffs forceCoeffs execute:
    Coefficients
        Cd       : 0.00979892	(pressure: 0.00788427	viscous: 0.00191465)
        Cs       : 1.23902e-18	(pressure: 2.66175e-18	viscous: -1.42274e-18)
        Cl       : 0.0434989	(pressure: 0.0427373	viscous: 0.000761613)
        CmRoll       : -2.17494e-07	(pressure: -2.13686e-07	viscous: -3.80806e-09)
        CmPitch       : -0.00018072	(pressure: -0.000182144	viscous: 1.42427e-06)
        CmYaw       : 4.89946e-08	(pressure: 3.94213e-08	viscous: 9.57324e-09)
        Cd(f)    : 0.00489924
        Cd(r)    : 0.00489968
        Cs(f)    : 4.89946e-08
        Cs(r)    : -4.89946e-08
        Cl(f)    : 0.0215687
        Cl(r)    : 0.0219302
Time = 54

smoothSolver:  Solving for Ux, Initial residual = 0.00482771, Final residual = 0.000440798, No Iterations 10
smoothSolver:  Solving for Uy, Initial residual = 0.00725564, Final residual = 0.000624249, No Iterations 9
GAMG:  Solving for p, Initial residual = 0.00180377, Final residual = 0.000174054, No Iterations 7
time step continuity errors : sum local = 0.00149951, global = -5.43294e-05, cumulative = -0.00554938
ExecutionTime = 0.72 s  ClockTime = 1 s

forceCoeffs forceCoeffs execute:
    Coefficients
        Cd       : 0.00976885	(pressure: 0.00786077	viscous: 0.00190808)
        Cs       : 1.23607e-18	(pressure: 2.65654e-18	viscous: -1.42048e-18)
        Cl       : 0.0432529	(pressure: 0.0424917	viscous: 0.000761212)
        CmRoll       : -2.16264e-07	(pressure: -2.12458e-07	viscous: -3.80606e-09)
        CmPitch       : -0.00017949	(pressure: -0.0001809	viscous: 1.41003e-06)
        CmYaw       : 4.88442e-08	(pressure: 3.93038e-08	viscous: 9.5404e-09)
        Cd(f)    : 0.00488421
        Cd(r)    : 0.00488464
        Cs(f)    : 4.88442e-08
        Cs(r)    : -4.88442e-08
        Cl(f)    : 0.0214469
        Cl(r)    : 0.0218059
Time = 55

smoothSolver:  Solving for Ux, Initial residual = 0.00473768, Final residual = 0.000434455, No Iterations 10
smoothSolver:  Solving for Uy, Initial residual = 0.00712945, Final residual = 0.000610425, No Iterations 9
GAMG:  Solving for p, Initial residual = 0.00174516, Final residual = 0.000166474, No Iterations 7
time step continuity errors : sum local = 0.00143699, global = -5.30165e-05, cumulative = -0.00560239
ExecutionTime = 0.72 s  ClockTime = 1 s

forceCoeffs forceCoeffs execute:
    Coefficients
        Cd       : 0.00974103	(pressure: 0.00783926	viscous: 0.00190178)
        Cs       : 1.23309e-18	(pressure: 2.65145e-18	viscous: -1.41836e-18)
        Cl       : 0.0430122	(pressure: 0.0422515	viscous: 0.000760664)
        CmRoll       : -2.15061e-07	(pressure: -2.11258e-07	viscous: -3.80332e-09)
        CmPitch       : -0.000178287	(pressure: -0.000179684	viscous: 1.39766e-06)
        CmYaw       : 4.87052e-08	(pressure: 3.91963e-08	viscous: 9.50888e-09)
        Cd(f)    : 0.0048703
        Cd(r)    : 0.00487073
        Cs(f)    : 4.87052e-08
        Cs(r)    : -4.87052e-08
        Cl(f)    : 0.0213278
        Cl(r)    : 0.0216844
Time = 56

smoothSolver:  Solving for Ux, Initial residual = 0.00464761, Final residual = 0.000428289, No Iterations 10
smoothSolver:  Solving for Uy, Initial residual = 0.0069854, Final residual = 0.000599988, No Iterations 9
GAMG:  Solving for p, Initial residual = 0.00168816, Final residual = 0.000160433, No Iterations 7
time step continuity errors : sum local = 0.00138736, global = -4.95978e-05, cumulative = -0.00565199
ExecutionTime = 0.72 s  ClockTime = 1 s

forceCoeffs forceCoeffs execute:
    Coefficients
        Cd       : 0.00971492	(pressure: 0.00781923	viscous: 0.0018957)
        Cs       : 1.23011e-18	(pressure: 2.64652e-18	viscous: -1.41641e-18)
        Cl       : 0.0427762	(pressure: 0.0420162	viscous: 0.000760008)
        CmRoll       : -2.13881e-07	(pressure: -2.10081e-07	viscous: -3.80004e-09)
        CmPitch       : -0.000177107	(pressure: -0.000178493	viscous: 1.38685e-06)
        CmYaw       : 4.85746e-08	(pressure: 3.90961e-08	viscous: 9.47849e-09)
        Cd(f)    : 0.00485725
        Cd(r)    : 0.00485768
        Cs(f)    : 4.85746e-08
        Cs(r)    : -4.85746e-08
        Cl(f)    : 0.021211
        Cl(r)    : 0.0215652
Time = 57

smoothSolver:  Solving for Ux, Initial residual = 0.00455971, Final residual = 0.000422247, No Iterations 10
smoothSolver:  Solving for Uy, Initial residual = 0.00683599, Final residual = 0.000590045, No Iterations 9
GAMG:  Solving for p, Initial residual = 0.00164373, Final residual = 0.000156237, No Iterations 7
time step continuity errors : sum local = 0.00135329, global = -4.42886e-05, cumulative = -0.00569628
ExecutionTime = 0.73 s  ClockTime = 1 s

forceCoeffs forceCoeffs execute:
    Coefficients
        Cd       : 0.00969	(pressure: 0.0078002	viscous: 0.0018898)
        Cs       : 1.22712e-18	(pressure: 2.64179e-18	viscous: -1.41467e-18)
        Cl       : 0.042544	(pressure: 0.0417847	viscous: 0.000759264)
        CmRoll       : -2.1272e-07	(pressure: -2.08924e-07	viscous: -3.79632e-09)
        CmPitch       : -0.000175944	(pressure: -0.000177321	viscous: 1.37727e-06)
        CmYaw       : 4.845e-08	(pressure: 3.9001e-08	viscous: 9.44898e-09)
        Cd(f)    : 0.00484479
        Cd(r)    : 0.00484521
        Cs(f)    : 4.845e-08
        Cs(r)    : -4.845e-08
        Cl(f)    : 0.0210961
        Cl(r)    : 0.021448
Time = 58

smoothSolver:  Solving for Ux, Initial residual = 0.00447526, Final residual = 0.000416352, No Iterations 10
smoothSolver:  Solving for Uy, Initial residual = 0.00668875, Final residual = 0.000580284, No Iterations 9
GAMG:  Solving for p, Initial residual = 0.00160962, Final residual = 0.000153797, No Iterations 7
time step continuity errors : sum local = 0.00133421, global = -3.75117e-05, cumulative = -0.00573379
ExecutionTime = 0.75 s  ClockTime = 1 s

forceCoeffs forceCoeffs execute:
    Coefficients
        Cd       : 0.009666	(pressure: 0.00778198	viscous: 0.00188403)
        Cs       : 1.22415e-18	(pressure: 2.63726e-18	viscous: -1.41311e-18)
        Cl       : 0.0423153	(pressure: 0.0415568	viscous: 0.000758461)
        CmRoll       : -2.11576e-07	(pressure: -2.07784e-07	viscous: -3.7923e-09)
        CmPitch       : -0.000174797	(pressure: -0.000176166	viscous: 1.3686e-06)
        CmYaw       : 4.833e-08	(pressure: 3.89099e-08	viscous: 9.42014e-09)
        Cd(f)    : 0.00483279
        Cd(r)    : 0.00483321
        Cs(f)    : 4.833e-08
        Cs(r)    : -4.833e-08
        Cl(f)    : 0.0209828
        Cl(r)    : 0.0213324
Time = 59

smoothSolver:  Solving for Ux, Initial residual = 0.00439476, Final residual = 0.000410779, No Iterations 10
smoothSolver:  Solving for Uy, Initial residual = 0.00654928, Final residual = 0.000570652, No Iterations 9
GAMG:  Solving for p, Initial residual = 0.00158665, Final residual = 0.000153848, No Iterations 7
time step continuity errors : sum local = 0.00133659, global = -2.84635e-05, cumulative = -0.00576225
ExecutionTime = 0.75 s  ClockTime = 1 s

forceCoeffs forceCoeffs execute:
    Coefficients
        Cd       : 0.00964289	(pressure: 0.00776451	viscous: 0.00187838)
        Cs       : 1.2212e-18	(pressure: 2.63288e-18	viscous: -1.41167e-18)
        Cl       : 0.0420898	(pressure: 0.0413322	viscous: 0.000757618)
        CmRoll       : -2.10449e-07	(pressure: -2.06661e-07	viscous: -3.78809e-09)
        CmPitch       : -0.000173665	(pressure: -0.000175026	viscous: 1.36061e-06)
        CmYaw       : 4.82144e-08	(pressure: 3.88225e-08	viscous: 9.3919e-09)
        Cd(f)    : 0.00482123
        Cd(r)    : 0.00482165
        Cs(f)    : 4.82144e-08
        Cs(r)    : -4.82144e-08
        Cl(f)    : 0.0208712
        Cl(r)    : 0.0212186
Time = 60

smoothSolver:  Solving for Ux, Initial residual = 0.00431887, Final residual = 0.000405357, No Iterations 10
smoothSolver:  Solving for Uy, Initial residual = 0.0064199, Final residual = 0.000561032, No Iterations 9
GAMG:  Solving for p, Initial residual = 0.00156561, Final residual = 0.000153546, No Iterations 7
time step continuity errors : sum local = 0.00133573, global = -2.63504e-05, cumulative = -0.0057886
ExecutionTime = 0.76 s  ClockTime = 1 s

forceCoeffs forceCoeffs execute:
    Coefficients
        Cd       : 0.00962071	(pressure: 0.00774787	viscous: 0.00187285)
        Cs       : 1.21832e-18	(pressure: 2.62865e-18	viscous: -1.41033e-18)
        Cl       : 0.0418694	(pressure: 0.0411127	viscous: 0.000756745)
        CmRoll       : -2.09347e-07	(pressure: -2.05563e-07	viscous: -3.78373e-09)
        CmPitch       : -0.000172559	(pressure: -0.000173913	viscous: 1.35321e-06)
        CmYaw       : 4.81036e-08	(pressure: 3.87393e-08	viscous: 9.36425e-09)
        Cd(f)    : 0.00481015
        Cd(r)    : 0.00481057
        Cs(f)    : 4.81036e-08
        Cs(r)    : -4.81036e-08
        Cl(f)    : 0.0207622
        Cl(r)    : 0.0211073
Time = 61

smoothSolver:  Solving for Ux, Initial residual = 0.0042475, Final residual = 0.000400161, No Iterations 10
smoothSolver:  Solving for Uy, Initial residual = 0.00629475, Final residual = 0.000551401, No Iterations 9
GAMG:  Solving for p, Initial residual = 0.00154416, Final residual = 0.000154317, No Iterations 7
time step continuity errors : sum local = 0.00134422, global = -2.04412e-05, cumulative = -0.00580905
ExecutionTime = 0.78 s  ClockTime = 1 s

forceCoeffs forceCoeffs execute:
    Coefficients
        Cd       : 0.00959931	(pressure: 0.00773187	viscous: 0.00186744)
        Cs       : 1.21545e-18	(pressure: 2.62448e-18	viscous: -1.40903e-18)
        Cl       : 0.0416509	(pressure: 0.040895	viscous: 0.000755845)
        CmRoll       : -2.08254e-07	(pressure: -2.04475e-07	viscous: -3.77922e-09)
        CmPitch       : -0.000171462	(pressure: -0.000172808	viscous: 1.34638e-06)
        CmYaw       : 4.79966e-08	(pressure: 3.86594e-08	viscous: 9.33721e-09)
        Cd(f)    : 0.00479945
        Cd(r)    : 0.00479987
        Cs(f)    : 4.79966e-08
        Cs(r)    : -4.79966e-08
        Cl(f)    : 0.020654
        Cl(r)    : 0.0209969
Time = 62

smoothSolver:  Solving for Ux, Initial residual = 0.00417805, Final residual = 0.000395227, No Iterations 10
smoothSolver:  Solving for Uy, Initial residual = 0.00618517, Final residual = 0.000541599, No Iterations 9
GAMG:  Solving for p, Initial residual = 0.00152184, Final residual = 0.000119636, No Iterations 8
time step continuity errors : sum local = 0.00104328, global = -5.69768e-05, cumulative = -0.00586602
ExecutionTime = 0.78 s  ClockTime = 1 s

forceCoeffs forceCoeffs execute:
    Coefficients
        Cd       : 0.00957697	(pressure: 0.00771487	viscous: 0.0018621)
        Cs       : 1.2124e-18	(pressure: 2.62044e-18	viscous: -1.40804e-18)
        Cl       : 0.0414263	(pressure: 0.0406714	viscous: 0.000754913)
        CmRoll       : -2.07131e-07	(pressure: -2.03357e-07	viscous: -3.77457e-09)
        CmPitch       : -0.000170329	(pressure: -0.000171669	viscous: 1.34003e-06)
        CmYaw       : 4.78848e-08	(pressure: 3.85743e-08	viscous: 9.3105e-09)
        Cd(f)    : 0.00478828
        Cd(r)    : 0.00478869
        Cs(f)    : 4.78848e-08
        Cs(r)    : -4.78848e-08
        Cl(f)    : 0.0205428
        Cl(r)    : 0.0208835
Time = 63

smoothSolver:  Solving for Ux, Initial residual = 0.00411262, Final residual = 0.00039043, No Iterations 10
smoothSolver:  Solving for Uy, Initial residual = 0.00613504, Final residual = 0.000533422, No Iterations 9
GAMG:  Solving for p, Initial residual = 0.00149944, Final residual = 0.000114586, No Iterations 8
time step continuity errors : sum local = 0.000999963, global = -6.49921e-05, cumulative = -0.00593101
ExecutionTime = 0.79 s  ClockTime = 1 s

forceCoeffs forceCoeffs execute:
    Coefficients
        Cd       : 0.00955874	(pressure: 0.0077019	viscous: 0.00185683)
        Cs       : 1.20974e-18	(pressure: 2.6162e-18	viscous: -1.40646e-18)
        Cl       : 0.0412184	(pressure: 0.0404645	viscous: 0.000753943)
        CmRoll       : -2.06092e-07	(pressure: -2.02322e-07	viscous: -3.76972e-09)
        CmPitch       : -0.000169289	(pressure: -0.000170623	viscous: 1.334e-06)
        CmYaw       : 4.77937e-08	(pressure: 3.85095e-08	viscous: 9.28417e-09)
        Cd(f)    : 0.00477916
        Cd(r)    : 0.00477957
        Cs(f)    : 4.77937e-08
        Cs(r)    : -4.77937e-08
        Cl(f)    : 0.0204399
        Cl(r)    : 0.0207785
Time = 64

smoothSolver:  Solving for Ux, Initial residual = 0.00404548, Final residual = 0.000385757, No Iterations 10
smoothSolver:  Solving for Uy, Initial residual = 0.00602107, Final residual = 0.000522405, No Iterations 9
GAMG:  Solving for p, Initial residual = 0.00146692, Final residual = 0.000115876, No Iterations 8
time step continuity errors : sum local = 0.00101226, global = -6.75627e-05, cumulative = -0.00599858
ExecutionTime = 0.81 s  ClockTime = 1 s

forceCoeffs forceCoeffs execute:
    Coefficients
        Cd       : 0.00954109	(pressure: 0.00768923	viscous: 0.00185187)
        Cs       : 1.20694e-18	(pressure: 2.61208e-18	viscous: -1.40514e-18)
        Cl       : 0.0410127	(pressure: 0.0402598	viscous: 0.000752961)
        CmRoll       : -2.05064e-07	(pressure: -2.01299e-07	viscous: -3.76481e-09)
        CmPitch       : -0.000168259	(pressure: -0.000169588	viscous: 1.32896e-06)
        CmYaw       : 4.77055e-08	(pressure: 3.84461e-08	viscous: 9.25935e-09)
        Cd(f)    : 0.00477034
        Cd(r)    : 0.00477075
        Cs(f)    : 4.77055e-08
        Cs(r)    : -4.77055e-08
        Cl(f)    : 0.0203381
        Cl(r)    : 0.0206746
Time = 65

smoothSolver:  Solving for Ux, Initial residual = 0.00398692, Final residual = 0.000381286, No Iterations 10
smoothSolver:  Solving for Uy, Initial residual = 0.00591848, Final residual = 0.000511995, No Iterations 9
GAMG:  Solving for p, Initial residual = 0.00143471, Final residual = 0.000117928, No Iterations 8
time step continuity errors : sum local = 0.00103121, global = -6.97905e-05, cumulative = -0.00606837
ExecutionTime = 0.81 s  ClockTime = 1 s

forceCoeffs forceCoeffs execute:
    Coefficients
        Cd       : 0.00952339	(pressure: 0.00767639	viscous: 0.001847)
        Cs       : 1.2041e-18	(pressure: 2.60811e-18	viscous: -1.40401e-18)
        Cl       : 0.0408076	(pressure: 0.0400557	viscous: 0.000751923)
        CmRoll       : -2.04038e-07	(pressure: -2.00278e-07	viscous: -3.75962e-09)
        CmPitch       : -0.000167229	(pressure: -0.000168554	viscous: 1.32472e-06)
        CmYaw       : 4.76169e-08	(pressure: 3.83819e-08	viscous: 9.23501e-09)
        Cd(f)    : 0.00476149
        Cd(r)    : 0.0047619
        Cs(f)    : 4.76169e-08
        Cs(r)    : -4.76169e-08
        Cl(f)    : 0.0202366
        Cl(r)    : 0.020571
Time = 66

smoothSolver:  Solving for Ux, Initial residual = 0.00393147, Final residual = 0.000376847, No Iterations 10
smoothSolver:  Solving for Uy, Initial residual = 0.00583086, Final residual = 0.000502631, No Iterations 9
GAMG:  Solving for p, Initial residual = 0.0014052, Final residual = 0.000120362, No Iterations 8
time step continuity errors : sum local = 0.00105345, global = -7.07335e-05, cumulative = -0.0061391
ExecutionTime = 0.83 s  ClockTime = 1 s

forceCoeffs forceCoeffs execute:
    Coefficients
        Cd       : 0.00950586	(pressure: 0.00766364	viscous: 0.00184221)
        Cs       : 1.2013e-18	(pressure: 2.60426e-18	viscous: -1.40296e-18)
        Cl       : 0.0406045	(pressure: 0.0398536	viscous: 0.000750878)
        CmRoll       : -2.03022e-07	(pressure: -1.99268e-07	viscous: -3.75439e-09)
        CmPitch       : -0.000166208	(pressure: -0.000167529	viscous: 1.32068e-06)
        CmYaw       : 4.75293e-08	(pressure: 3.83182e-08	viscous: 9.21106e-09)
        Cd(f)    : 0.00475272
        Cd(r)    : 0.00475313
        Cs(f)    : 4.75293e-08
        Cs(r)    : -4.75293e-08
        Cl(f)    : 0.020136
        Cl(r)    : 0.0204684
Time = 67

smoothSolver:  Solving for Ux, Initial residual = 0.00387724, Final residual = 0.000372567, No Iterations 10
smoothSolver:  Solving for Uy, Initial residual = 0.00574499, Final residual = 0.000495136, No Iterations 9
GAMG:  Solving for p, Initial residual = 0.00138072, Final residual = 0.000123183, No Iterations 8
time step continuity errors : sum local = 0.00107905, global = -6.52588e-05, cumulative = -0.00620436
ExecutionTime = 0.84 s  ClockTime = 1 s

forceCoeffs forceCoeffs execute:
    Coefficients
        Cd       : 0.00948874	(pressure: 0.00765123	viscous: 0.00183751)
        Cs       : 1.19854e-18	(pressure: 2.60048e-18	viscous: -1.40195e-18)
        Cl       : 0.0404035	(pressure: 0.0396536	viscous: 0.000749827)
        CmRoll       : -2.02017e-07	(pressure: -1.98268e-07	viscous: -3.74914e-09)
        CmPitch       : -0.000165197	(pressure: -0.000166514	viscous: 1.31692e-06)
        CmYaw       : 4.74437e-08	(pressure: 3.82562e-08	viscous: 9.18754e-09)
        Cd(f)    : 0.00474417
        Cd(r)    : 0.00474457
        Cs(f)    : 4.74437e-08
        Cs(r)    : -4.74437e-08
        Cl(f)    : 0.0200365
        Cl(r)    : 0.0203669
Time = 68

smoothSolver:  Solving for Ux, Initial residual = 0.0038231, Final residual = 0.000368303, No Iterations 10
smoothSolver:  Solving for Uy, Initial residual = 0.00566025, Final residual = 0.000488761, No Iterations 9
GAMG:  Solving for p, Initial residual = 0.00136098, Final residual = 0.000125486, No Iterations 8
[...]
        Cl(r)    : 0.0098034
Time = 3484

smoothSolver:  Solving for Ux, Initial residual = 1.45815e-06, Final residual = 8.092e-07, No Iterations 2
smoothSolver:  Solving for Uy, Initial residual = 2.33656e-06, Final residual = 8.70054e-07, No Iterations 3
GAMG:  Solving for p, Initial residual = 1.21525e-06, Final residual = 6.38825e-07, No Iterations 4
time step continuity errors : sum local = 3.74883e-06, global = 1.84553e-07, cumulative = -0.00772019
ExecutionTime = 53.97 s  ClockTime = 54 s

forceCoeffs forceCoeffs execute:
    Coefficients
        Cd       : 0.00825511	(pressure: 0.00674588	viscous: 0.00150923)
        Cs       : 8.37509e-19	(pressure: 2.13092e-18	viscous: -1.29341e-18)
        Cl       : 0.0194839	(pressure: 0.0188591	viscous: 0.000624837)
        CmRoll       : -9.74197e-08	(pressure: -9.42955e-08	viscous: -3.12419e-09)
        CmPitch       : -6.14612e-05	(pressure: -6.28623e-05	viscous: 1.40111e-06)
        CmYaw       : 4.12756e-08	(pressure: 3.37294e-08	viscous: 7.54615e-09)
        Cd(f)    : 0.00412746
        Cd(r)    : 0.00412765
        Cs(f)    : 4.12756e-08
        Cs(r)    : -4.12756e-08
        Cl(f)    : 0.00968051
        Cl(r)    : 0.00980343
Time = 3485

smoothSolver:  Solving for Ux, Initial residual = 1.45707e-06, Final residual = 8.08612e-07, No Iterations 2
smoothSolver:  Solving for Uy, Initial residual = 2.33482e-06, Final residual = 8.69416e-07, No Iterations 3
GAMG:  Solving for p, Initial residual = 1.21435e-06, Final residual = 6.38355e-07, No Iterations 4
time step continuity errors : sum local = 3.74607e-06, global = 1.84415e-07, cumulative = -0.00772001
ExecutionTime = 53.99 s  ClockTime = 54 s

forceCoeffs forceCoeffs execute:
    Coefficients
        Cd       : 0.00825512	(pressure: 0.00674588	viscous: 0.00150923)
        Cs       : 8.3751e-19	(pressure: 2.13092e-18	viscous: -1.29341e-18)
        Cl       : 0.019484	(pressure: 0.0188592	viscous: 0.000624837)
        CmRoll       : -9.742e-08	(pressure: -9.42958e-08	viscous: -3.12419e-09)
        CmPitch       : -6.14615e-05	(pressure: -6.28626e-05	viscous: 1.40111e-06)
        CmYaw       : 4.12756e-08	(pressure: 3.37294e-08	viscous: 7.54616e-09)
        Cd(f)    : 0.00412746
        Cd(r)    : 0.00412766
        Cs(f)    : 4.12756e-08
        Cs(r)    : -4.12756e-08
        Cl(f)    : 0.00968054
        Cl(r)    : 0.00980346
Time = 3486

smoothSolver:  Solving for Ux, Initial residual = 1.456e-06, Final residual = 8.08025e-07, No Iterations 2
smoothSolver:  Solving for Uy, Initial residual = 2.33308e-06, Final residual = 8.68778e-07, No Iterations 3
GAMG:  Solving for p, Initial residual = 1.21345e-06, Final residual = 6.37885e-07, No Iterations 4
time step continuity errors : sum local = 3.7433e-06, global = 1.84278e-07, cumulative = -0.00771982
ExecutionTime = 54 s  ClockTime = 55 s

forceCoeffs forceCoeffs execute:
    Coefficients
        Cd       : 0.00825512	(pressure: 0.00674589	viscous: 0.00150923)
        Cs       : 8.37511e-19	(pressure: 2.13092e-18	viscous: -1.29341e-18)
        Cl       : 0.0194841	(pressure: 0.0188592	viscous: 0.000624838)
        CmRoll       : -9.74203e-08	(pressure: -9.42961e-08	viscous: -3.12419e-09)
        CmPitch       : -6.14618e-05	(pressure: -6.28629e-05	viscous: 1.40111e-06)
        CmYaw       : 4.12756e-08	(pressure: 3.37294e-08	viscous: 7.54617e-09)
        Cd(f)    : 0.00412746
        Cd(r)    : 0.00412766
        Cs(f)    : 4.12756e-08
        Cs(r)    : -4.12756e-08
        Cl(f)    : 0.00968056
        Cl(r)    : 0.00980349
Time = 3487

smoothSolver:  Solving for Ux, Initial residual = 1.45494e-06, Final residual = 8.07437e-07, No Iterations 2
smoothSolver:  Solving for Uy, Initial residual = 2.33135e-06, Final residual = 8.68141e-07, No Iterations 3
GAMG:  Solving for p, Initial residual = 1.21255e-06, Final residual = 6.37416e-07, No Iterations 4
time step continuity errors : sum local = 3.74054e-06, global = 1.8414e-07, cumulative = -0.00771964
ExecutionTime = 54.02 s  ClockTime = 55 s

forceCoeffs forceCoeffs execute:
    Coefficients
        Cd       : 0.00825513	(pressure: 0.00674589	viscous: 0.00150923)
        Cs       : 8.37511e-19	(pressure: 2.13093e-18	viscous: -1.29341e-18)
        Cl       : 0.0194841	(pressure: 0.0188593	viscous: 0.000624838)
        CmRoll       : -9.74206e-08	(pressure: -9.42964e-08	viscous: -3.12419e-09)
        CmPitch       : -6.14621e-05	(pressure: -6.28632e-05	viscous: 1.40112e-06)
        CmYaw       : 4.12756e-08	(pressure: 3.37295e-08	viscous: 7.54617e-09)
        Cd(f)    : 0.00412747
        Cd(r)    : 0.00412766
        Cs(f)    : 4.12756e-08
        Cs(r)    : -4.12756e-08
        Cl(f)    : 0.00968059
        Cl(r)    : 0.00980352
Time = 3488

smoothSolver:  Solving for Ux, Initial residual = 1.45387e-06, Final residual = 8.06851e-07, No Iterations 2
smoothSolver:  Solving for Uy, Initial residual = 2.32962e-06, Final residual = 8.67505e-07, No Iterations 3
GAMG:  Solving for p, Initial residual = 1.21165e-06, Final residual = 6.36947e-07, No Iterations 4
time step continuity errors : sum local = 3.73779e-06, global = 1.84003e-07, cumulative = -0.00771945
ExecutionTime = 54.02 s  ClockTime = 55 s

forceCoeffs forceCoeffs execute:
    Coefficients
        Cd       : 0.00825513	(pressure: 0.0067459	viscous: 0.00150924)
        Cs       : 8.37512e-19	(pressure: 2.13093e-18	viscous: -1.29342e-18)
        Cl       : 0.0194842	(pressure: 0.0188593	viscous: 0.000624838)
        CmRoll       : -9.74209e-08	(pressure: -9.42967e-08	viscous: -3.12419e-09)
        CmPitch       : -6.14624e-05	(pressure: -6.28635e-05	viscous: 1.40112e-06)
        CmYaw       : 4.12757e-08	(pressure: 3.37295e-08	viscous: 7.54618e-09)
        Cd(f)    : 0.00412747
        Cd(r)    : 0.00412766
        Cs(f)    : 4.12757e-08
        Cs(r)    : -4.12757e-08
        Cl(f)    : 0.00968062
        Cl(r)    : 0.00980355
Time = 3489

smoothSolver:  Solving for Ux, Initial residual = 1.4528e-06, Final residual = 8.06265e-07, No Iterations 2
smoothSolver:  Solving for Uy, Initial residual = 2.32788e-06, Final residual = 8.66869e-07, No Iterations 3
GAMG:  Solving for p, Initial residual = 1.21075e-06, Final residual = 6.36479e-07, No Iterations 4
time step continuity errors : sum local = 3.73503e-06, global = 1.83866e-07, cumulative = -0.00771927
ExecutionTime = 54.03 s  ClockTime = 55 s

forceCoeffs forceCoeffs execute:
    Coefficients
        Cd       : 0.00825514	(pressure: 0.0067459	viscous: 0.00150924)
        Cs       : 8.37513e-19	(pressure: 2.13093e-18	viscous: -1.29342e-18)
        Cl       : 0.0194842	(pressure: 0.0188594	viscous: 0.000624838)
        CmRoll       : -9.74211e-08	(pressure: -9.4297e-08	viscous: -3.12419e-09)
        CmPitch       : -6.14627e-05	(pressure: -6.28638e-05	viscous: 1.40112e-06)
        CmYaw       : 4.12757e-08	(pressure: 3.37295e-08	viscous: 7.54619e-09)
        Cd(f)    : 0.00412747
        Cd(r)    : 0.00412767
        Cs(f)    : 4.12757e-08
        Cs(r)    : -4.12757e-08
        Cl(f)    : 0.00968065
        Cl(r)    : 0.00980358
Time = 3490

smoothSolver:  Solving for Ux, Initial residual = 1.45173e-06, Final residual = 8.05679e-07, No Iterations 2
smoothSolver:  Solving for Uy, Initial residual = 2.32615e-06, Final residual = 8.66233e-07, No Iterations 3
GAMG:  Solving for p, Initial residual = 1.20985e-06, Final residual = 6.36011e-07, No Iterations 4
time step continuity errors : sum local = 3.73228e-06, global = 1.83729e-07, cumulative = -0.00771909
ExecutionTime = 54.05 s  ClockTime = 55 s

forceCoeffs forceCoeffs execute:
    Coefficients
        Cd       : 0.00825515	(pressure: 0.00674591	viscous: 0.00150924)
        Cs       : 8.37514e-19	(pressure: 2.13093e-18	viscous: -1.29342e-18)
        Cl       : 0.0194843	(pressure: 0.0188594	viscous: 0.000624838)
        CmRoll       : -9.74214e-08	(pressure: -9.42972e-08	viscous: -3.12419e-09)
        CmPitch       : -6.1463e-05	(pressure: -6.28641e-05	viscous: 1.40112e-06)
        CmYaw       : 4.12757e-08	(pressure: 3.37295e-08	viscous: 7.54619e-09)
        Cd(f)    : 0.00412748
        Cd(r)    : 0.00412767
        Cs(f)    : 4.12757e-08
        Cs(r)    : -4.12757e-08
        Cl(f)    : 0.00968068
        Cl(r)    : 0.00980361
Time = 3491

smoothSolver:  Solving for Ux, Initial residual = 1.45067e-06, Final residual = 8.05094e-07, No Iterations 2
smoothSolver:  Solving for Uy, Initial residual = 2.32443e-06, Final residual = 8.65598e-07, No Iterations 3
GAMG:  Solving for p, Initial residual = 1.20896e-06, Final residual = 6.35543e-07, No Iterations 4
time step continuity errors : sum local = 3.72953e-06, global = 1.83592e-07, cumulative = -0.0077189
ExecutionTime = 54.06 s  ClockTime = 55 s

forceCoeffs forceCoeffs execute:
    Coefficients
        Cd       : 0.00825515	(pressure: 0.00674591	viscous: 0.00150924)
        Cs       : 8.37514e-19	(pressure: 2.13093e-18	viscous: -1.29342e-18)
        Cl       : 0.0194843	(pressure: 0.0188595	viscous: 0.000624839)
        CmRoll       : -9.74217e-08	(pressure: -9.42975e-08	viscous: -3.12419e-09)
        CmPitch       : -6.14632e-05	(pressure: -6.28644e-05	viscous: 1.40112e-06)
        CmYaw       : 4.12758e-08	(pressure: 3.37296e-08	viscous: 7.5462e-09)
        Cd(f)    : 0.00412748
        Cd(r)    : 0.00412767
        Cs(f)    : 4.12758e-08
        Cs(r)    : -4.12758e-08
        Cl(f)    : 0.00968071
        Cl(r)    : 0.00980364
Time = 3492

smoothSolver:  Solving for Ux, Initial residual = 1.44961e-06, Final residual = 8.04509e-07, No Iterations 2
smoothSolver:  Solving for Uy, Initial residual = 2.3227e-06, Final residual = 8.64963e-07, No Iterations 3
GAMG:  Solving for p, Initial residual = 1.20806e-06, Final residual = 6.35075e-07, No Iterations 4
time step continuity errors : sum local = 3.72678e-06, global = 1.83455e-07, cumulative = -0.00771872
ExecutionTime = 54.06 s  ClockTime = 55 s

forceCoeffs forceCoeffs execute:
    Coefficients
        Cd       : 0.00825516	(pressure: 0.00674592	viscous: 0.00150924)
        Cs       : 8.37515e-19	(pressure: 2.13093e-18	viscous: -1.29342e-18)
        Cl       : 0.0194844	(pressure: 0.0188596	viscous: 0.000624839)
        CmRoll       : -9.7422e-08	(pressure: -9.42978e-08	viscous: -3.12419e-09)
        CmPitch       : -6.14635e-05	(pressure: -6.28647e-05	viscous: 1.40112e-06)
        CmYaw       : 4.12758e-08	(pressure: 3.37296e-08	viscous: 7.5462e-09)
        Cd(f)    : 0.00412748
        Cd(r)    : 0.00412768
        Cs(f)    : 4.12758e-08
        Cs(r)    : -4.12758e-08
        Cl(f)    : 0.00968074
        Cl(r)    : 0.00980367
Time = 3493

smoothSolver:  Solving for Ux, Initial residual = 1.44854e-06, Final residual = 8.03924e-07, No Iterations 2
smoothSolver:  Solving for Uy, Initial residual = 2.32097e-06, Final residual = 8.64329e-07, No Iterations 3
GAMG:  Solving for p, Initial residual = 1.20716e-06, Final residual = 6.34608e-07, No Iterations 4
time step continuity errors : sum local = 3.72403e-06, global = 1.83318e-07, cumulative = -0.00771854
ExecutionTime = 54.08 s  ClockTime = 55 s

forceCoeffs forceCoeffs execute:
    Coefficients
        Cd       : 0.00825516	(pressure: 0.00674592	viscous: 0.00150924)
        Cs       : 8.37516e-19	(pressure: 2.13093e-18	viscous: -1.29342e-18)
        Cl       : 0.0194845	(pressure: 0.0188596	viscous: 0.000624839)
        CmRoll       : -9.74223e-08	(pressure: -9.42981e-08	viscous: -3.1242e-09)
        CmPitch       : -6.14638e-05	(pressure: -6.2865e-05	viscous: 1.40113e-06)
        CmYaw       : 4.12758e-08	(pressure: 3.37296e-08	viscous: 7.54621e-09)
        Cd(f)    : 0.00412748
        Cd(r)    : 0.00412768
        Cs(f)    : 4.12758e-08
        Cs(r)    : -4.12758e-08
        Cl(f)    : 0.00968077
        Cl(r)    : 0.0098037
Time = 3494

smoothSolver:  Solving for Ux, Initial residual = 1.44748e-06, Final residual = 8.0334e-07, No Iterations 2
smoothSolver:  Solving for Uy, Initial residual = 2.31925e-06, Final residual = 8.63696e-07, No Iterations 3
GAMG:  Solving for p, Initial residual = 1.20627e-06, Final residual = 6.34141e-07, No Iterations 4
time step continuity errors : sum local = 3.72129e-06, global = 1.83182e-07, cumulative = -0.00771835
ExecutionTime = 54.1 s  ClockTime = 55 s

forceCoeffs forceCoeffs execute:
    Coefficients
        Cd       : 0.00825517	(pressure: 0.00674592	viscous: 0.00150924)
        Cs       : 8.37517e-19	(pressure: 2.13093e-18	viscous: -1.29342e-18)
        Cl       : 0.0194845	(pressure: 0.0188597	viscous: 0.000624839)
        CmRoll       : -9.74226e-08	(pressure: -9.42984e-08	viscous: -3.1242e-09)
        CmPitch       : -6.14641e-05	(pressure: -6.28652e-05	viscous: 1.40113e-06)
        CmYaw       : 4.12758e-08	(pressure: 3.37296e-08	viscous: 7.54622e-09)
        Cd(f)    : 0.00412749
        Cd(r)    : 0.00412768
        Cs(f)    : 4.12758e-08
        Cs(r)    : -4.12758e-08
        Cl(f)    : 0.0096808
        Cl(r)    : 0.00980373
Time = 3495

smoothSolver:  Solving for Ux, Initial residual = 1.44642e-06, Final residual = 8.02757e-07, No Iterations 2
smoothSolver:  Solving for Uy, Initial residual = 2.31752e-06, Final residual = 8.63062e-07, No Iterations 3
GAMG:  Solving for p, Initial residual = 1.20537e-06, Final residual = 6.33675e-07, No Iterations 4
time step continuity errors : sum local = 3.71855e-06, global = 1.83046e-07, cumulative = -0.00771817
ExecutionTime = 54.11 s  ClockTime = 55 s

forceCoeffs forceCoeffs execute:
    Coefficients
        Cd       : 0.00825517	(pressure: 0.00674593	viscous: 0.00150924)
        Cs       : 8.37518e-19	(pressure: 2.13094e-18	viscous: -1.29342e-18)
        Cl       : 0.0194846	(pressure: 0.0188597	viscous: 0.000624839)
        CmRoll       : -9.74229e-08	(pressure: -9.42987e-08	viscous: -3.1242e-09)
        CmPitch       : -6.14644e-05	(pressure: -6.28655e-05	viscous: 1.40113e-06)
        CmYaw       : 4.12759e-08	(pressure: 3.37296e-08	viscous: 7.54622e-09)
        Cd(f)    : 0.00412749
        Cd(r)    : 0.00412768
        Cs(f)    : 4.12759e-08
        Cs(r)    : -4.12759e-08
        Cl(f)    : 0.00968083
        Cl(r)    : 0.00980376
Time = 3496

smoothSolver:  Solving for Ux, Initial residual = 1.44536e-06, Final residual = 8.02174e-07, No Iterations 2
smoothSolver:  Solving for Uy, Initial residual = 2.3158e-06, Final residual = 8.6243e-07, No Iterations 3
GAMG:  Solving for p, Initial residual = 1.20448e-06, Final residual = 6.33209e-07, No Iterations 4
time step continuity errors : sum local = 3.7158e-06, global = 1.82909e-07, cumulative = -0.00771799
ExecutionTime = 54.11 s  ClockTime = 55 s

forceCoeffs forceCoeffs execute:
    Coefficients
        Cd       : 0.00825518	(pressure: 0.00674593	viscous: 0.00150925)
        Cs       : 8.37518e-19	(pressure: 2.13094e-18	viscous: -1.29342e-18)
        Cl       : 0.0194846	(pressure: 0.0188598	viscous: 0.00062484)
        CmRoll       : -9.74232e-08	(pressure: -9.4299e-08	viscous: -3.1242e-09)
        CmPitch       : -6.14647e-05	(pressure: -6.28658e-05	viscous: 1.40113e-06)
        CmYaw       : 4.12759e-08	(pressure: 3.37297e-08	viscous: 7.54623e-09)
        Cd(f)    : 0.00412749
        Cd(r)    : 0.00412769
        Cs(f)    : 4.12759e-08
        Cs(r)    : -4.12759e-08
        Cl(f)    : 0.00968086
        Cl(r)    : 0.00980378
Time = 3497

smoothSolver:  Solving for Ux, Initial residual = 1.4443e-06, Final residual = 8.01591e-07, No Iterations 2
smoothSolver:  Solving for Uy, Initial residual = 2.31408e-06, Final residual = 8.61797e-07, No Iterations 3
GAMG:  Solving for p, Initial residual = 1.20359e-06, Final residual = 6.32743e-07, No Iterations 4
time step continuity errors : sum local = 3.71307e-06, global = 1.82773e-07, cumulative = -0.0077178
ExecutionTime = 54.13 s  ClockTime = 55 s

forceCoeffs forceCoeffs execute:
    Coefficients
        Cd       : 0.00825519	(pressure: 0.00674594	viscous: 0.00150925)
        Cs       : 8.37519e-19	(pressure: 2.13094e-18	viscous: -1.29342e-18)
        Cl       : 0.0194847	(pressure: 0.0188599	viscous: 0.00062484)
        CmRoll       : -9.74235e-08	(pressure: -9.42993e-08	viscous: -3.1242e-09)
        CmPitch       : -6.1465e-05	(pressure: -6.28661e-05	viscous: 1.40113e-06)
        CmYaw       : 4.12759e-08	(pressure: 3.37297e-08	viscous: 7.54624e-09)
        Cd(f)    : 0.0041275
        Cd(r)    : 0.00412769
        Cs(f)    : 4.12759e-08
        Cs(r)    : -4.12759e-08
        Cl(f)    : 0.00968088
        Cl(r)    : 0.00980381
Time = 3498

smoothSolver:  Solving for Ux, Initial residual = 1.44324e-06, Final residual = 8.01009e-07, No Iterations 2
smoothSolver:  Solving for Uy, Initial residual = 2.31236e-06, Final residual = 8.61165e-07, No Iterations 3
GAMG:  Solving for p, Initial residual = 1.20269e-06, Final residual = 6.32278e-07, No Iterations 4
time step continuity errors : sum local = 3.71033e-06, global = 1.82637e-07, cumulative = -0.00771762
ExecutionTime = 54.14 s  ClockTime = 55 s

forceCoeffs forceCoeffs execute:
    Coefficients
        Cd       : 0.00825519	(pressure: 0.00674594	viscous: 0.00150925)
        Cs       : 8.3752e-19	(pressure: 2.13094e-18	viscous: -1.29342e-18)
        Cl       : 0.0194848	(pressure: 0.0188599	viscous: 0.00062484)
        CmRoll       : -9.74238e-08	(pressure: -9.42996e-08	viscous: -3.1242e-09)
        CmPitch       : -6.14653e-05	(pressure: -6.28664e-05	viscous: 1.40114e-06)
        CmYaw       : 4.1276e-08	(pressure: 3.37297e-08	viscous: 7.54624e-09)
        Cd(f)    : 0.0041275
        Cd(r)    : 0.00412769
        Cs(f)    : 4.1276e-08
        Cs(r)    : -4.1276e-08
        Cl(f)    : 0.00968091
        Cl(r)    : 0.00980384
Time = 3499

smoothSolver:  Solving for Ux, Initial residual = 1.44218e-06, Final residual = 8.00427e-07, No Iterations 2
smoothSolver:  Solving for Uy, Initial residual = 2.31064e-06, Final residual = 8.60534e-07, No Iterations 3
GAMG:  Solving for p, Initial residual = 1.2018e-06, Final residual = 6.31813e-07, No Iterations 4
time step continuity errors : sum local = 3.7076e-06, global = 1.82502e-07, cumulative = -0.00771744
ExecutionTime = 54.16 s  ClockTime = 55 s

forceCoeffs forceCoeffs execute:
    Coefficients
        Cd       : 0.0082552	(pressure: 0.00674595	viscous: 0.00150925)
        Cs       : 8.37521e-19	(pressure: 2.13094e-18	viscous: -1.29342e-18)
        Cl       : 0.0194848	(pressure: 0.01886	viscous: 0.00062484)
        CmRoll       : -9.74241e-08	(pressure: -9.42999e-08	viscous: -3.1242e-09)
        CmPitch       : -6.14656e-05	(pressure: -6.28667e-05	viscous: 1.40114e-06)
        CmYaw       : 4.1276e-08	(pressure: 3.37297e-08	viscous: 7.54625e-09)
        Cd(f)    : 0.0041275
        Cd(r)    : 0.0041277
        Cs(f)    : 4.1276e-08
        Cs(r)    : -4.1276e-08
        Cl(f)    : 0.00968094
        Cl(r)    : 0.00980387
Time = 3500

smoothSolver:  Solving for Ux, Initial residual = 1.44112e-06, Final residual = 7.99846e-07, No Iterations 2
smoothSolver:  Solving for Uy, Initial residual = 2.30893e-06, Final residual = 8.59903e-07, No Iterations 3
GAMG:  Solving for p, Initial residual = 1.20091e-06, Final residual = 6.31348e-07, No Iterations 4
time step continuity errors : sum local = 3.70486e-06, global = 1.82366e-07, cumulative = -0.00771726
ExecutionTime = 54.19 s  ClockTime = 55 s

forceCoeffs forceCoeffs execute:
    Coefficients
        Cd       : 0.0082552	(pressure: 0.00674595	viscous: 0.00150925)
        Cs       : 8.37522e-19	(pressure: 2.13094e-18	viscous: -1.29342e-18)
        Cl       : 0.0194849	(pressure: 0.01886	viscous: 0.00062484)
        CmRoll       : -9.74244e-08	(pressure: -9.43002e-08	viscous: -3.1242e-09)
        CmPitch       : -6.14659e-05	(pressure: -6.2867e-05	viscous: 1.40114e-06)
        CmYaw       : 4.1276e-08	(pressure: 3.37298e-08	viscous: 7.54626e-09)
        Cd(f)    : 0.0041275
        Cd(r)    : 0.0041277
        Cs(f)    : 4.1276e-08
        Cs(r)    : -4.1276e-08
        Cl(f)    : 0.00968097
        Cl(r)    : 0.0098039
End

Finalising parallel run
